*******************************************************************************

         NASA-GLENN CHEMICAL EQUILIBRIUM PROGRAM CEA2, FEBRUARY 5, 2004
                   BY  BONNIE MCBRIDE AND SANFORD GORDON
      REFS: NASA RP-1311, PART I, 1994 AND NASA RP-1311, PART II, 1996

 *******************************************************************************



  
 ### CEA analysis performed on Thu 05-Mar-2020 15:12:01
  
 # Problem Type: "Rocket" (Infinite Area Combustor)
  
 prob case=_______________5312 ro equilibrium
  
 # Pressure (1 value):
 p,psia= 40
 # Supersonic Area Ratio (1 value):
 supar= 5
  
 # Oxidizer/Fuel Wt. ratio (20 values):
 o/f= 0.25, 0.5, 0.75, 1, 1.25, 1.5, 1.75, 2, 2.25, 2.5, 2.75, 3, 3.25, 3.5, 3.75
 , 4, 4.25, 4.5, 4.75, 5
  
 # You selected the following fuels and oxidizers:
 reac
 fuel H2                wt%=100.0000
 oxid O2                wt%=100.0000
  
 # You selected these options for output:
 # short version of output
 output short
 # Proportions of any products will be expressed as Mass Fractions.
 output massf
 # Heat will be expressed as calories
 output calories
 # Transport properties calculated
 output transport
  
  
 # Input prepared by this script:prepareInputFile.cgi
  
 ### IMPORTANT:  The following line is the end of your CEA input file!
 end






              THEORETICAL ROCKET PERFORMANCE ASSUMING EQUILIBRIUM

           COMPOSITION DURING EXPANSION FROM INFINITE AREA COMBUSTOR

 Pin =    40.0 PSIA
 CASE = _______________

             REACTANT                    WT FRACTION      ENERGY      TEMP
                                          (SEE NOTE)      CAL/MOL       K  
 FUEL        H2                           1.0000000         0.000      0.000
 OXIDANT     O2                           1.0000000         0.000      0.000

 O/F=    0.25000  %FUEL= 80.000000  R,EQ.RATIO=31.746731  PHI,EQ.RATIO=31.746731

                 CHAMBER   THROAT     EXIT
 Pinf/P            1.0000   1.8894   37.496
 P, ATM            2.7218   1.4406  0.07259
 T, K              557.76   466.06   240.34
 RHO, G/CC       1.4985-4 9.4919-5 9.5394-6
 H, CAL/G         0.00000  -256.18 -1014.61
 U, CAL/G         -439.87  -623.72 -1198.89
 G, CAL/G        -7597.16 -6604.23 -4288.23
 S, CAL/(G)(K)    13.6208  13.6208  13.6208

 M, (1/n)           2.520    2.520    2.592
 MW, MOL WT         2.520    2.520    2.520
 (dLV/dLP)t      -1.00000 -1.00000 -1.00387
 (dLV/dLT)p        1.0000   1.0000   1.0990
 Cp, CAL/(G)(K)    2.7972   2.7901   4.6341
 GAMMAs            1.3926   1.3940   1.2437
 SON VEL,M/SEC     1600.9   1464.1    979.2
 MACH NUMBER        0.000    1.000    2.976

 TRANSPORT PROPERTIES (GASES ONLY)
   CONDUCTIVITY IN UNITS OF MILLICALORIES/(CM)(K)(SEC)

 VISC,MILLIPOISE  0.15348  0.13521  0.07830

  WITH EQUILIBRIUM REACTIONS

 Cp, CAL/(G)(K)    2.7972   2.7901   3.2487
 CONDUCTIVITY      0.6598   0.5827   0.3740
 PRANDTL NUMBER    0.6507   0.6475   0.6802

  WITH FROZEN REACTIONS

 Cp, CAL/(G)(K)    2.7972   2.7901   3.2487
 CONDUCTIVITY      0.6598   0.5827   0.3740
 PRANDTL NUMBER    0.6507   0.6475   0.6802

 PERFORMANCE PARAMETERS

 Ae/At                      1.0000   5.0000
 CSTAR, FT/SEC              6510.6   6510.6
 CF                         0.7378   1.4683
 Ivac,LB-SEC/LB              256.4    324.1
 Isp, LB-SEC/LB              149.3    297.1


 MASS FRACTIONS

 *H2              0.77480  0.77480  0.77480
 H2O              0.22520  0.22520  0.02677
 H2O(cr)          0.00000  0.00000  0.19843

  * THERMODYNAMIC PROPERTIES FITTED TO 20000.K

 NOTE. WEIGHT FRACTION OF FUEL IN TOTAL FUELS AND OF OXIDANT IN TOTAL OXIDANTS










              THEORETICAL ROCKET PERFORMANCE ASSUMING EQUILIBRIUM

           COMPOSITION DURING EXPANSION FROM INFINITE AREA COMBUSTOR

 Pin =    40.0 PSIA
 CASE = _______________

             REACTANT                    WT FRACTION      ENERGY      TEMP
                                          (SEE NOTE)      CAL/MOL       K  
 FUEL        H2                           1.0000000         0.000      0.000
 OXIDANT     O2                           1.0000000         0.000      0.000

 O/F=    0.50000  %FUEL= 66.666667  R,EQ.RATIO=15.873365  PHI,EQ.RATIO=15.873365

                 CHAMBER   THROAT     EXIT
 Pinf/P            1.0000   1.8842   46.973
 P, ATM            2.7218   1.4446  0.05794
 T, K              810.76   680.44   274.99
 RHO, G/CC       1.2371-4 7.8231-5 7.7649-6
 H, CAL/G         0.00000  -309.67 -1257.34
 U, CAL/G         -532.82  -756.85 -1438.06
 G, CAL/G        -10094.6 -8781.68 -4681.16
 S, CAL/(G)(K)    12.4508  12.4508  12.4508

 M, (1/n)           3.024    3.024    3.024
 MW, MOL WT         3.024    3.024    3.024
 (dLV/dLP)t      -1.00000 -1.00000 -1.00000
 (dLV/dLT)p        1.0000   1.0000   1.0000
 Cp, CAL/(G)(K)    2.3896   2.3640   2.2883
 GAMMAs            1.3793   1.3850   1.4029
 SON VEL,M/SEC     1753.6   1609.8   1029.9
 MACH NUMBER        0.000    1.000    3.149

 TRANSPORT PROPERTIES (GASES ONLY)
   CONDUCTIVITY IN UNITS OF MILLICALORIES/(CM)(K)(SEC)

 VISC,MILLIPOISE  0.21843  0.19252  0.09918

  WITH EQUILIBRIUM REACTIONS

 Cp, CAL/(G)(K)    2.3896   2.3640   2.2883
 CONDUCTIVITY      0.8299   0.7285   0.3814
 PRANDTL NUMBER    0.6290   0.6247   0.5949

  WITH FROZEN REACTIONS

 Cp, CAL/(G)(K)    2.3896   2.3640   2.2883
 CONDUCTIVITY      0.8299   0.7285   0.3814
 PRANDTL NUMBER    0.6290   0.6247   0.5949

 PERFORMANCE PARAMETERS

 Ae/At                     1.00000   5.0000
 CSTAR, FT/SEC              7184.9   7184.9
 CF                         0.7351   1.4812
 Ivac,LB-SEC/LB              282.7    354.5
 Isp, LB-SEC/LB              164.2    330.8


 MASS FRACTIONS

 *H2              0.62467  0.62467  0.62467
 H2O              0.37533  0.37533  0.37533

  * THERMODYNAMIC PROPERTIES FITTED TO 20000.K

 NOTE. WEIGHT FRACTION OF FUEL IN TOTAL FUELS AND OF OXIDANT IN TOTAL OXIDANTS










              THEORETICAL ROCKET PERFORMANCE ASSUMING EQUILIBRIUM

           COMPOSITION DURING EXPANSION FROM INFINITE AREA COMBUSTOR

 Pin =    40.0 PSIA
 CASE = _______________

             REACTANT                    WT FRACTION      ENERGY      TEMP
                                          (SEE NOTE)      CAL/MOL       K  
 FUEL        H2                           1.0000000         0.000      0.000
 OXIDANT     O2                           1.0000000         0.000      0.000

 O/F=    0.75000  %FUEL= 57.142857  R,EQ.RATIO=10.582244  PHI,EQ.RATIO=10.582244

                 CHAMBER   THROAT     EXIT
 Pinf/P            1.0000   1.8753   46.155
 P, ATM            2.7218   1.4514  0.05897
 T, K             1053.24   890.36   366.66
 RHO, G/CC       1.1110-4 7.0081-5 6.9145-6
 H, CAL/G         0.00000  -343.51 -1411.47
 U, CAL/G         -593.29  -845.05 -1618.01
 G, CAL/G        -12009.0 -10495.3 -5592.11
 S, CAL/(G)(K)    11.4019  11.4019  11.4019

 M, (1/n)           3.528    3.528    3.528
 MW, MOL WT         3.528    3.528    3.528
 (dLV/dLP)t      -1.00000 -1.00000 -1.00000
 (dLV/dLT)p        1.0000   1.0000   1.0000
 Cp, CAL/(G)(K)    2.1330   2.0863   2.0048
 GAMMAs            1.3589   1.3699   1.3908
 SON VEL,M/SEC     1836.6   1695.5   1096.3
 MACH NUMBER        0.000    1.000    3.135

 TRANSPORT PROPERTIES (GASES ONLY)
   CONDUCTIVITY IN UNITS OF MILLICALORIES/(CM)(K)(SEC)

 VISC,MILLIPOISE  0.28288  0.25047  0.12874

  WITH EQUILIBRIUM REACTIONS

 Cp, CAL/(G)(K)    2.1330   2.0863   2.0048
 CONDUCTIVITY      0.9754   0.8546   0.4504
 PRANDTL NUMBER    0.6186   0.6114   0.5730

  WITH FROZEN REACTIONS

 Cp, CAL/(G)(K)    2.1330   2.0863   2.0048
 CONDUCTIVITY      0.9754   0.8546   0.4504
 PRANDTL NUMBER    0.6186   0.6114   0.5730

 PERFORMANCE PARAMETERS

 Ae/At                      1.0000   5.0000
 CSTAR, FT/SEC              7615.2   7615.2
 CF                         0.7304   1.4806
 Ivac,LB-SEC/LB              299.1    376.1
 Isp, LB-SEC/LB              172.9    350.4


 MASS FRACTIONS

 *H2              0.51743  0.51743  0.51743
 H2O              0.48257  0.48257  0.48257

  * THERMODYNAMIC PROPERTIES FITTED TO 20000.K

 NOTE. WEIGHT FRACTION OF FUEL IN TOTAL FUELS AND OF OXIDANT IN TOTAL OXIDANTS










              THEORETICAL ROCKET PERFORMANCE ASSUMING EQUILIBRIUM

           COMPOSITION DURING EXPANSION FROM INFINITE AREA COMBUSTOR

 Pin =    40.0 PSIA
 CASE = _______________

             REACTANT                    WT FRACTION      ENERGY      TEMP
                                          (SEE NOTE)      CAL/MOL       K  
 FUEL        H2                           1.0000000         0.000      0.000
 OXIDANT     O2                           1.0000000         0.000      0.000

 O/F=    1.00000  %FUEL= 50.000000  R,EQ.RATIO= 7.936683  PHI,EQ.RATIO= 7.936683

                 CHAMBER   THROAT     EXIT
 Pinf/P            1.0000   1.8638   45.235
 P, ATM            2.7218   1.4604  0.06017
 T, K             1282.32  1093.65   460.45
 RHO, G/CC       1.0429-4 6.5608-5 6.4207-6
 H, CAL/G         0.00000  -363.95 -1520.02
 U, CAL/G         -632.04  -903.00 -1746.97
 G, CAL/G        -13480.6 -11861.2 -6360.56
 S, CAL/(G)(K)    10.5127  10.5127  10.5127

 M, (1/n)           4.032    4.032    4.032
 MW, MOL WT         4.032    4.032    4.032
 (dLV/dLP)t      -1.00000 -1.00000 -1.00000
 (dLV/dLT)p        1.0000   1.0000   1.0000
 Cp, CAL/(G)(K)    1.9591   1.8998   1.7749
 GAMMAs            1.3362   1.3503   1.3845
 SON VEL,M/SEC     1879.8   1745.1   1146.6
 MACH NUMBER        0.000    1.000    3.111

 TRANSPORT PROPERTIES (GASES ONLY)
   CONDUCTIVITY IN UNITS OF MILLICALORIES/(CM)(K)(SEC)

 VISC,MILLIPOISE  0.34512  0.30790  0.15953

  WITH EQUILIBRIUM REACTIONS

 Cp, CAL/(G)(K)    1.9591   1.8998   1.7749
 CONDUCTIVITY      1.1025   0.9646   0.5049
 PRANDTL NUMBER    0.6133   0.6064   0.5608

  WITH FROZEN REACTIONS

 Cp, CAL/(G)(K)    1.9590   1.8998   1.7749
 CONDUCTIVITY      1.1024   0.9646   0.5049
 PRANDTL NUMBER    0.6133   0.6064   0.5608

 PERFORMANCE PARAMETERS

 Ae/At                      1.0000   5.0000
 CSTAR, FT/SEC              7902.6   7902.6
 CF                         0.7245   1.4806
 Ivac,LB-SEC/LB              309.7    390.8
 Isp, LB-SEC/LB              178.0    363.7


 MASS FRACTIONS

 *H2              0.43700  0.43700  0.43700
 H2O              0.56300  0.56300  0.56300

  * THERMODYNAMIC PROPERTIES FITTED TO 20000.K

 NOTE. WEIGHT FRACTION OF FUEL IN TOTAL FUELS AND OF OXIDANT IN TOTAL OXIDANTS










              THEORETICAL ROCKET PERFORMANCE ASSUMING EQUILIBRIUM

           COMPOSITION DURING EXPANSION FROM INFINITE AREA COMBUSTOR

 Pin =    40.0 PSIA
 CASE = _______________

             REACTANT                    WT FRACTION      ENERGY      TEMP
                                          (SEE NOTE)      CAL/MOL       K  
 FUEL        H2                           1.0000000         0.000      0.000
 OXIDANT     O2                           1.0000000         0.000      0.000

 O/F=    1.25000  %FUEL= 44.444444  R,EQ.RATIO= 6.349346  PHI,EQ.RATIO= 6.349346

                 CHAMBER   THROAT     EXIT
 Pinf/P            1.0000   1.8515   44.107
 P, ATM            2.7218   1.4700  0.06171
 T, K             1497.69  1288.71   557.72
 RHO, G/CC       1.0045-4 6.3052-5 6.1159-6
 H, CAL/G         0.00000  -375.47 -1596.30
 U, CAL/G         -656.18  -940.09 -1840.65
 G, CAL/G        -14623.0 -12958.0 -7041.70
 S, CAL/(G)(K)     9.7636   9.7636   9.7636

 M, (1/n)           4.536    4.536    4.536
 MW, MOL WT         4.536    4.536    4.536
 (dLV/dLP)t      -1.00000 -1.00000 -1.00000
 (dLV/dLT)p        1.0001   1.0000   1.0000
 Cp, CAL/(G)(K)    1.8276   1.7657   1.5976
 GAMMAs            1.3154   1.3300   1.3779
 SON VEL,M/SEC     1900.4   1772.6   1186.9
 MACH NUMBER        0.000    1.000    3.079

 TRANSPORT PROPERTIES (GASES ONLY)
   CONDUCTIVITY IN UNITS OF MILLICALORIES/(CM)(K)(SEC)

 VISC,MILLIPOISE  0.40523  0.36378  0.19197

  WITH EQUILIBRIUM REACTIONS

 Cp, CAL/(G)(K)    1.8276   1.7657   1.5976
 CONDUCTIVITY      1.2134   1.0626   0.5532
 PRANDTL NUMBER    0.6103   0.6045   0.5544

  WITH FROZEN REACTIONS

 Cp, CAL/(G)(K)    1.8262   1.7656   1.5976
 CONDUCTIVITY      1.2116   1.0624   0.5532
 PRANDTL NUMBER    0.6108   0.6046   0.5544

 PERFORMANCE PARAMETERS

 Ae/At                      1.0000   5.0000
 CSTAR, FT/SEC              8095.9   8095.9
 CF                         0.7183   1.4811
 Ivac,LB-SEC/LB              316.7    401.2
 Isp, LB-SEC/LB              180.8    372.7


 MASS FRACTIONS

 *H2              0.37444  0.37445  0.37445
 H2O              0.62555  0.62555  0.62555

  * THERMODYNAMIC PROPERTIES FITTED TO 20000.K

 NOTE. WEIGHT FRACTION OF FUEL IN TOTAL FUELS AND OF OXIDANT IN TOTAL OXIDANTS










              THEORETICAL ROCKET PERFORMANCE ASSUMING EQUILIBRIUM

           COMPOSITION DURING EXPANSION FROM INFINITE AREA COMBUSTOR

 Pin =    40.0 PSIA
 CASE = _______________

             REACTANT                    WT FRACTION      ENERGY      TEMP
                                          (SEE NOTE)      CAL/MOL       K  
 FUEL        H2                           1.0000000         0.000      0.000
 OXIDANT     O2                           1.0000000         0.000      0.000

 O/F=    1.50000  %FUEL= 40.000000  R,EQ.RATIO= 5.291122  PHI,EQ.RATIO= 5.291122

                 CHAMBER   THROAT     EXIT
 Pinf/P            1.0000   1.8402   42.849
 P, ATM            2.7218   1.4791  0.06352
 T, K             1700.28  1474.95   658.64
 RHO, G/CC       9.8312-5 6.1589-5 5.9233-6
 H, CAL/G         0.00000  -381.32 -1649.04
 U, CAL/G         -670.47  -962.91 -1908.75
 G, CAL/G        -15521.8 -13846.1 -7661.72
 S, CAL/(G)(K)     9.1290   9.1290   9.1290

 M, (1/n)           5.039    5.040    5.040
 MW, MOL WT         5.039    5.040    5.040
 (dLV/dLP)t      -1.00002 -1.00000 -1.00000
 (dLV/dLT)p        1.0007   1.0001   1.0000
 Cp, CAL/(G)(K)    1.7249   1.6613   1.4618
 GAMMAs            1.2968   1.3113   1.3694
 SON VEL,M/SEC     1907.3   1786.3   1219.8
 MACH NUMBER        0.000    1.000    3.045

 TRANSPORT PROPERTIES (GASES ONLY)
   CONDUCTIVITY IN UNITS OF MILLICALORIES/(CM)(K)(SEC)

 VISC,MILLIPOISE  0.46326  0.41813  0.22594

  WITH EQUILIBRIUM REACTIONS

 Cp, CAL/(G)(K)    1.7249   1.6613   1.4618
 CONDUCTIVITY      1.3165   1.1494   0.5976
 PRANDTL NUMBER    0.6070   0.6043   0.5527

  WITH FROZEN REACTIONS

 Cp, CAL/(G)(K)    1.7167   1.6600   1.4618
 CONDUCTIVITY      1.3036   1.1476   0.5976
 PRANDTL NUMBER    0.6101   0.6048   0.5527

 PERFORMANCE PARAMETERS

 Ae/At                      1.0000   5.0000
 CSTAR, FT/SEC              8224.4   8224.4
 CF                         0.7126   1.4819
 Ivac,LB-SEC/LB              321.1    408.6
 Isp, LB-SEC/LB              182.2    378.8


 MASS FRACTIONS

 *H               0.00002  0.00000  0.00000
 *H2              0.32439  0.32440  0.32440
 H2O              0.67559  0.67560  0.67560

  * THERMODYNAMIC PROPERTIES FITTED TO 20000.K

 NOTE. WEIGHT FRACTION OF FUEL IN TOTAL FUELS AND OF OXIDANT IN TOTAL OXIDANTS










              THEORETICAL ROCKET PERFORMANCE ASSUMING EQUILIBRIUM

           COMPOSITION DURING EXPANSION FROM INFINITE AREA COMBUSTOR

 Pin =    40.0 PSIA
 CASE = _______________

             REACTANT                    WT FRACTION      ENERGY      TEMP
                                          (SEE NOTE)      CAL/MOL       K  
 FUEL        H2                           1.0000000         0.000      0.000
 OXIDANT     O2                           1.0000000         0.000      0.000

 O/F=    1.75000  %FUEL= 36.363636  R,EQ.RATIO= 4.535247  PHI,EQ.RATIO= 4.535247

                 CHAMBER   THROAT     EXIT
 Pinf/P            1.0000   1.8299   41.554
 P, ATM            2.7218   1.4874  0.06550
 T, K             1890.44  1652.57   762.72
 RHO, G/CC       9.7250-5 6.0805-5 5.8017-6
 H, CAL/G         0.00000  -383.36 -1684.36
 U, CAL/G         -677.79  -975.77 -1957.77
 G, CAL/G        -16231.7 -14572.7 -8233.27
 S, CAL/(G)(K)     8.5862   8.5862   8.5862

 M, (1/n)           5.543    5.543    5.544
 MW, MOL WT         5.543    5.543    5.544
 (dLV/dLP)t      -1.00010 -1.00002 -1.00000
 (dLV/dLT)p        1.0029   1.0006   1.0000
 Cp, CAL/(G)(K)    1.6532   1.5784   1.3570
 GAMMAs            1.2788   1.2943   1.3590
 SON VEL,M/SEC     1904.4   1791.1   1246.8
 MACH NUMBER        0.000    1.000    3.011

 TRANSPORT PROPERTIES (GASES ONLY)
   CONDUCTIVITY IN UNITS OF MILLICALORIES/(CM)(K)(SEC)

 VISC,MILLIPOISE  0.51901  0.47088  0.26113

  WITH EQUILIBRIUM REACTIONS

 Cp, CAL/(G)(K)    1.6532   1.5784   1.3570
 CONDUCTIVITY      1.4341   1.2311   0.6389
 PRANDTL NUMBER    0.5983   0.6037   0.5546

  WITH FROZEN REACTIONS

 Cp, CAL/(G)(K)    1.6228   1.5717   1.3570
 CONDUCTIVITY      1.3793   1.2203   0.6389
 PRANDTL NUMBER    0.6106   0.6065   0.5546

 PERFORMANCE PARAMETERS

 Ae/At                      1.0000   5.0000
 CSTAR, FT/SEC              8308.2   8308.2
 CF                         0.7073   1.4825
 Ivac,LB-SEC/LB              323.8    413.9
 Isp, LB-SEC/LB              182.6    382.8


 MASS FRACTIONS

 *H               0.00007  0.00001  0.00000
 *H2              0.28339  0.28344  0.28346
 H2O              0.71651  0.71654  0.71654
 *OH              0.00003  0.00000  0.00000

  * THERMODYNAMIC PROPERTIES FITTED TO 20000.K

 NOTE. WEIGHT FRACTION OF FUEL IN TOTAL FUELS AND OF OXIDANT IN TOTAL OXIDANTS










              THEORETICAL ROCKET PERFORMANCE ASSUMING EQUILIBRIUM

           COMPOSITION DURING EXPANSION FROM INFINITE AREA COMBUSTOR

 Pin =    40.0 PSIA
 CASE = _______________

             REACTANT                    WT FRACTION      ENERGY      TEMP
                                          (SEE NOTE)      CAL/MOL       K  
 FUEL        H2                           1.0000000         0.000      0.000
 OXIDANT     O2                           1.0000000         0.000      0.000

 O/F=    2.00000  %FUEL= 33.333333  R,EQ.RATIO= 3.968341  PHI,EQ.RATIO= 3.968341

                 CHAMBER   THROAT     EXIT
 Pinf/P            1.0000   1.8200   40.285
 P, ATM            2.7218   1.4955  0.06756
 T, K             2067.19  1821.70   869.34
 RHO, G/CC       9.6972-5 6.0494-5 5.7279-6
 H, CAL/G         0.00000  -382.48 -1706.50
 U, CAL/G         -679.73  -981.17 -1992.16
 G, CAL/G        -16780.6 -15170.3 -8763.49
 S, CAL/(G)(K)     8.1176   8.1176   8.1176

 M, (1/n)           6.043    6.047    6.048
 MW, MOL WT         6.043    6.047    6.048
 (dLV/dLP)t      -1.00034 -1.00008 -1.00000
 (dLV/dLT)p        1.0092   1.0023   1.0000
 Cp, CAL/(G)(K)    1.6215   1.5186   1.2751
 GAMMAs            1.2597   1.2777   1.3472
 SON VEL,M/SEC     1892.8   1789.0   1268.9
 MACH NUMBER        0.000    1.000    2.978

 TRANSPORT PROPERTIES (GASES ONLY)
   CONDUCTIVITY IN UNITS OF MILLICALORIES/(CM)(K)(SEC)

 VISC,MILLIPOISE  0.57203  0.52187  0.29718

  WITH EQUILIBRIUM REACTIONS

 Cp, CAL/(G)(K)    1.6215   1.5186   1.2751
 CONDUCTIVITY      1.6025   1.3236   0.6774
 PRANDTL NUMBER    0.5788   0.5987   0.5594

  WITH FROZEN REACTIONS

 Cp, CAL/(G)(K)    1.5405   1.4955   1.2751
 CONDUCTIVITY      1.4394   1.2812   0.6774
 PRANDTL NUMBER    0.6122   0.6092   0.5594

 PERFORMANCE PARAMETERS

 Ae/At                      1.0000   5.0000
 CSTAR, FT/SEC              8360.5   8360.5
 CF                         0.7020   1.4829
 Ivac,LB-SEC/LB              325.2    417.6
 Isp, LB-SEC/LB              182.4    385.3


 MASS FRACTIONS

 *H               0.00022  0.00005  0.00000
 *H2              0.24912  0.24929  0.24934
 H2O              0.75050  0.75064  0.75066
 *OH              0.00016  0.00002  0.00000

  * THERMODYNAMIC PROPERTIES FITTED TO 20000.K

 NOTE. WEIGHT FRACTION OF FUEL IN TOTAL FUELS AND OF OXIDANT IN TOTAL OXIDANTS










              THEORETICAL ROCKET PERFORMANCE ASSUMING EQUILIBRIUM

           COMPOSITION DURING EXPANSION FROM INFINITE AREA COMBUSTOR

 Pin =    40.0 PSIA
 CASE = _______________

             REACTANT                    WT FRACTION      ENERGY      TEMP
                                          (SEE NOTE)      CAL/MOL       K  
 FUEL        H2                           1.0000000         0.000      0.000
 OXIDANT     O2                           1.0000000         0.000      0.000

 O/F=    2.25000  %FUEL= 30.769231  R,EQ.RATIO= 3.527415  PHI,EQ.RATIO= 3.527415

                 CHAMBER   THROAT     EXIT
 Pinf/P            1.0000   1.8096   39.064
 P, ATM            2.7218   1.5041  0.06968
 T, K             2228.53  1981.78   977.91
 RHO, G/CC       9.7340-5 6.0567-5 5.6887-6
 H, CAL/G         0.00000  -378.97 -1718.34
 U, CAL/G         -677.16  -980.38 -2014.95
 G, CAL/G        -17180.5 -15657.2 -9257.36
 S, CAL/(G)(K)     7.7093   7.7093   7.7093

 M, (1/n)           6.540    6.548    6.552
 MW, MOL WT         6.540    6.548    6.552
 (dLV/dLP)t      -1.00090 -1.00026 -1.00000
 (dLV/dLT)p        1.0224   1.0071   1.0000
 Cp, CAL/(G)(K)    1.6375   1.4888   1.2114
 GAMMAs            1.2393   1.2603   1.3340
 SON VEL,M/SEC     1873.8   1780.8   1286.7
 MACH NUMBER        0.000    1.000    2.947

 TRANSPORT PROPERTIES (GASES ONLY)
   CONDUCTIVITY IN UNITS OF MILLICALORIES/(CM)(K)(SEC)

 VISC,MILLIPOISE  0.62173  0.57080  0.33377

  WITH EQUILIBRIUM REACTIONS

 Cp, CAL/(G)(K)    1.6375   1.4888   1.2114
 CONDUCTIVITY      1.8593   1.4542   0.7130
 PRANDTL NUMBER    0.5475   0.5844   0.5671

  WITH FROZEN REACTIONS

 Cp, CAL/(G)(K)    1.4672   1.4282   1.2114
 CONDUCTIVITY      1.4845   1.3307   0.7130
 PRANDTL NUMBER    0.6145   0.6126   0.5671

 PERFORMANCE PARAMETERS

 Ae/At                      1.0000   5.0000
 CSTAR, FT/SEC              8389.1   8389.1
 CF                         0.6964   1.4830
 Ivac,LB-SEC/LB              325.7    420.0
 Isp, LB-SEC/LB              181.6    386.7


 MASS FRACTIONS

 *H               0.00052  0.00015  0.00000
 *H2              0.21998  0.22032  0.22046
 H2O              0.77894  0.77942  0.77954
 *OH              0.00056  0.00011  0.00000

  * THERMODYNAMIC PROPERTIES FITTED TO 20000.K

 NOTE. WEIGHT FRACTION OF FUEL IN TOTAL FUELS AND OF OXIDANT IN TOTAL OXIDANTS










              THEORETICAL ROCKET PERFORMANCE ASSUMING EQUILIBRIUM

           COMPOSITION DURING EXPANSION FROM INFINITE AREA COMBUSTOR

 Pin =    40.0 PSIA
 CASE = _______________

             REACTANT                    WT FRACTION      ENERGY      TEMP
                                          (SEE NOTE)      CAL/MOL       K  
 FUEL        H2                           1.0000000         0.000      0.000
 OXIDANT     O2                           1.0000000         0.000      0.000

 O/F=    2.50000  %FUEL= 28.571429  R,EQ.RATIO= 3.174673  PHI,EQ.RATIO= 3.174673

                 CHAMBER   THROAT     EXIT
 Pinf/P            1.0000   1.7982   37.889
 P, ATM            2.7218   1.5137  0.07184
 T, K             2372.59  2131.25  1087.98
 RHO, G/CC       9.8266-5 6.0985-5 5.6773-6
 H, CAL/G         0.00000  -373.04 -1721.78
 U, CAL/G         -670.78  -974.12 -2028.21
 G, CAL/G        -17440.5 -16039.5 -9719.33
 S, CAL/(G)(K)     7.3508   7.3508   7.3508

 M, (1/n)           7.029    7.046    7.056
 MW, MOL WT         7.029    7.046    7.056
 (dLV/dLP)t      -1.00189 -1.00067 -1.00000
 (dLV/dLT)p        1.0447   1.0175   1.0000
 Cp, CAL/(G)(K)    1.7014   1.4971   1.1608
 GAMMAs            1.2187   1.2413   1.3204
 SON VEL,M/SEC     1849.4   1766.8   1301.1
 MACH NUMBER        0.000    1.000    2.917

 TRANSPORT PROPERTIES (GASES ONLY)
   CONDUCTIVITY IN UNITS OF MILLICALORIES/(CM)(K)(SEC)

 VISC,MILLIPOISE  0.66757  0.61724  0.37062

  WITH EQUILIBRIUM REACTIONS

 Cp, CAL/(G)(K)    1.7014   1.4971   1.1608
 CONDUCTIVITY      2.2231   1.6555   0.7464
 PRANDTL NUMBER    0.5109   0.5582   0.5764

  WITH FROZEN REACTIONS

 Cp, CAL/(G)(K)    1.4012   1.3680   1.1608
 CONDUCTIVITY      1.5153   1.3693   0.7463
 PRANDTL NUMBER    0.6173   0.6166   0.5764

 PERFORMANCE PARAMETERS

 Ae/At                      1.0000   5.0000
 CSTAR, FT/SEC              8397.4   8397.4
 CF                         0.6903   1.4830
 Ivac,LB-SEC/LB              325.3    421.5
 Isp, LB-SEC/LB              180.2    387.1


 MASS FRACTIONS

 *H               0.00099  0.00036  0.00000
 *H2              0.19481  0.19538  0.19572
 H2O              0.80266  0.80387  0.80428
 *O               0.00001  0.00000  0.00000
 *OH              0.00152  0.00039  0.00000

  * THERMODYNAMIC PROPERTIES FITTED TO 20000.K

 NOTE. WEIGHT FRACTION OF FUEL IN TOTAL FUELS AND OF OXIDANT IN TOTAL OXIDANTS










              THEORETICAL ROCKET PERFORMANCE ASSUMING EQUILIBRIUM

           COMPOSITION DURING EXPANSION FROM INFINITE AREA COMBUSTOR

 Pin =    40.0 PSIA
 CASE = _______________

             REACTANT                    WT FRACTION      ENERGY      TEMP
                                          (SEE NOTE)      CAL/MOL       K  
 FUEL        H2                           1.0000000         0.000      0.000
 OXIDANT     O2                           1.0000000         0.000      0.000

 O/F=    2.75000  %FUEL= 26.666667  R,EQ.RATIO= 2.886066  PHI,EQ.RATIO= 2.886066

                 CHAMBER   THROAT     EXIT
 Pinf/P            1.0000   1.7861   36.734
 P, ATM            2.7218   1.5239  0.07410
 T, K             2498.83  2268.02  1199.45
 RHO, G/CC       9.9663-5 6.1718-5 5.6910-6
 H, CAL/G         0.00000  -365.19 -1718.03
 U, CAL/G         -661.38  -963.13 -2033.33
 G, CAL/G        -17576.1 -16317.8 -10154.7
 S, CAL/(G)(K)     7.0337   7.0337   7.0337

 M, (1/n)           7.508    7.538    7.560
 MW, MOL WT         7.508    7.538    7.560
 (dLV/dLP)t      -1.00341 -1.00145 -1.00000
 (dLV/dLT)p        1.0772   1.0358   1.0000
 Cp, CAL/(G)(K)    1.8058   1.5477   1.1204
 GAMMAs            1.2000   1.2215   1.3066
 SON VEL,M/SEC     1822.3   1748.1   1312.9
 MACH NUMBER        0.000    1.000    2.888

 TRANSPORT PROPERTIES (GASES ONLY)
   CONDUCTIVITY IN UNITS OF MILLICALORIES/(CM)(K)(SEC)

 VISC,MILLIPOISE  0.70933  0.66063  0.40760

  WITH EQUILIBRIUM REACTIONS

 Cp, CAL/(G)(K)    1.8058   1.5477   1.1204
 CONDUCTIVITY      2.6842   1.9512   0.7786
 PRANDTL NUMBER    0.4772   0.5240   0.5866

  WITH FROZEN REACTIONS

 Cp, CAL/(G)(K)    1.3414   1.3133   1.1203
 CONDUCTIVITY      1.5332   1.3971   0.7785
 PRANDTL NUMBER    0.6206   0.6210   0.5866

 PERFORMANCE PARAMETERS

 Ae/At                      1.0000   5.0000
 CSTAR, FT/SEC              8386.5   8386.5
 CF                         0.6839   1.4833
 Ivac,LB-SEC/LB              324.2    422.1
 Isp, LB-SEC/LB              178.3    386.6


 MASS FRACTIONS

 *H               0.00163  0.00071  0.00000
 *H2              0.17285  0.17362  0.17427
 H2O              0.82215  0.82457  0.82573
 *O               0.00003  0.00001  0.00000
 *OH              0.00333  0.00109  0.00000
 *O2              0.00002  0.00000  0.00000

  * THERMODYNAMIC PROPERTIES FITTED TO 20000.K

 NOTE. WEIGHT FRACTION OF FUEL IN TOTAL FUELS AND OF OXIDANT IN TOTAL OXIDANTS










              THEORETICAL ROCKET PERFORMANCE ASSUMING EQUILIBRIUM

           COMPOSITION DURING EXPANSION FROM INFINITE AREA COMBUSTOR

 Pin =    40.0 PSIA
 CASE = _______________

             REACTANT                    WT FRACTION      ENERGY      TEMP
                                          (SEE NOTE)      CAL/MOL       K  
 FUEL        H2                           1.0000000         0.000      0.000
 OXIDANT     O2                           1.0000000         0.000      0.000

 O/F=    3.00000  %FUEL= 25.000000  R,EQ.RATIO= 2.645561  PHI,EQ.RATIO= 2.645561

                 CHAMBER   THROAT     EXIT
 Pinf/P            1.0000   1.7744   35.584
 P, ATM            2.7218   1.5339  0.07649
 T, K             2608.21  2390.41  1312.27
 RHO, G/CC       1.0143-4 6.2717-5 5.7278-6
 H, CAL/G         0.00000  -356.14 -1707.97
 U, CAL/G         -649.83  -948.43 -2031.38
 G, CAL/G        -17609.1 -16494.8 -10567.6
 S, CAL/(G)(K)     6.7514   6.7514   6.7514

 M, (1/n)           7.976    8.020    8.064
 MW, MOL WT         7.976    8.020    8.064
 (dLV/dLP)t      -1.00546 -1.00270 -1.00000
 (dLV/dLT)p        1.1192   1.0637   1.0000
 Cp, CAL/(G)(K)    1.9397   1.6381   1.0873
 GAMMAs            1.1840   1.2026   1.2931
 SON VEL,M/SEC     1794.2   1726.3   1322.8
 MACH NUMBER        0.000    1.000    2.858

 TRANSPORT PROPERTIES (GASES ONLY)
   CONDUCTIVITY IN UNITS OF MILLICALORIES/(CM)(K)(SEC)

 VISC,MILLIPOISE  0.74709  0.70057  0.44474

  WITH EQUILIBRIUM REACTIONS

 Cp, CAL/(G)(K)    1.9397   1.6381   1.0873
 CONDUCTIVITY      3.2132   2.3437   0.8098
 PRANDTL NUMBER    0.4510   0.4897   0.5971

  WITH FROZEN REACTIONS

 Cp, CAL/(G)(K)    1.2869   1.2631   1.0868
 CONDUCTIVITY      1.5401   1.4144   0.8092
 PRANDTL NUMBER    0.6242   0.6256   0.5974

 PERFORMANCE PARAMETERS

 Ae/At                      1.0000   5.0000
 CSTAR, FT/SEC              8357.1   8357.1
 CF                         0.6777   1.4842
 Ivac,LB-SEC/LB              322.4    422.0
 Isp, LB-SEC/LB              176.0    385.5


 MASS FRACTIONS

 *H               0.00236  0.00120  0.00000
 *H2              0.15353  0.15445  0.15550
 H2O              0.83774  0.84183  0.84450
 *O               0.00011  0.00002  0.00000
 *OH              0.00622  0.00249  0.00000
 *O2              0.00005  0.00001  0.00000

  * THERMODYNAMIC PROPERTIES FITTED TO 20000.K

 NOTE. WEIGHT FRACTION OF FUEL IN TOTAL FUELS AND OF OXIDANT IN TOTAL OXIDANTS










              THEORETICAL ROCKET PERFORMANCE ASSUMING EQUILIBRIUM

           COMPOSITION DURING EXPANSION FROM INFINITE AREA COMBUSTOR

 Pin =    40.0 PSIA
 CASE = _______________

             REACTANT                    WT FRACTION      ENERGY      TEMP
                                          (SEE NOTE)      CAL/MOL       K  
 FUEL        H2                           1.0000000         0.000      0.000
 OXIDANT     O2                           1.0000000         0.000      0.000

 O/F=    3.25000  %FUEL= 23.529412  R,EQ.RATIO= 2.442056  PHI,EQ.RATIO= 2.442056

                 CHAMBER   THROAT     EXIT
 Pinf/P            1.0000   1.7640   34.437
 P, ATM            2.7218   1.5430  0.07904
 T, K             2702.57  2498.02  1426.35
 RHO, G/CC       1.0349-4 6.3920-5 5.7855-6
 H, CAL/G         0.00000  -346.62 -1692.39
 U, CAL/G         -636.92  -931.20 -2023.24
 G, CAL/G        -17562.8 -16580.1 -10961.6
 S, CAL/(G)(K)     6.4986   6.4986   6.4986

 M, (1/n)           8.432    8.492    8.567
 MW, MOL WT         8.432    8.492    8.567
 (dLV/dLP)t      -1.00799 -1.00445 -1.00000
 (dLV/dLT)p        1.1697   1.1014   1.0002
 Cp, CAL/(G)(K)    2.0936   1.7612   1.0599
 GAMMAs            1.1710   1.1859   1.2803
 SON VEL,M/SEC     1766.5   1703.1   1331.2
 MACH NUMBER        0.000    1.000    2.827

 TRANSPORT PROPERTIES (GASES ONLY)
   CONDUCTIVITY IN UNITS OF MILLICALORIES/(CM)(K)(SEC)

 VISC,MILLIPOISE  0.78113  0.73689  0.48197

  WITH EQUILIBRIUM REACTIONS

 Cp, CAL/(G)(K)    2.0936   1.7612   1.0599
 CONDUCTIVITY      3.7757   2.8139   0.8412
 PRANDTL NUMBER    0.4331   0.4612   0.6073

  WITH FROZEN REACTIONS

 Cp, CAL/(G)(K)    1.2372   1.2170   1.0583
 CONDUCTIVITY      1.5380   1.4223   0.8382
 PRANDTL NUMBER    0.6283   0.6305   0.6085

 PERFORMANCE PARAMETERS

 Ae/At                      1.0000   5.0000
 CSTAR, FT/SEC              8311.6   8311.6
 CF                         0.6723   1.4855
 Ivac,LB-SEC/LB              320.1    421.3
 Isp, LB-SEC/LB              173.7    383.7


 MASS FRACTIONS

 *H               0.00313  0.00180  0.00000
 *H2              0.13648  0.13744  0.13894
 H2O              0.84968  0.85582  0.86106
 *O               0.00026  0.00007  0.00000
 *OH              0.01031  0.00483  0.00000
 *O2              0.00014  0.00004  0.00000

  * THERMODYNAMIC PROPERTIES FITTED TO 20000.K

 NOTE. WEIGHT FRACTION OF FUEL IN TOTAL FUELS AND OF OXIDANT IN TOTAL OXIDANTS










              THEORETICAL ROCKET PERFORMANCE ASSUMING EQUILIBRIUM

           COMPOSITION DURING EXPANSION FROM INFINITE AREA COMBUSTOR

 Pin =    40.0 PSIA
 CASE = _______________

             REACTANT                    WT FRACTION      ENERGY      TEMP
                                          (SEE NOTE)      CAL/MOL       K  
 FUEL        H2                           1.0000000         0.000      0.000
 OXIDANT     O2                           1.0000000         0.000      0.000

 O/F=    3.50000  %FUEL= 22.222222  R,EQ.RATIO= 2.267624  PHI,EQ.RATIO= 2.267624

                 CHAMBER   THROAT     EXIT
 Pinf/P            1.0000   1.7552   33.300
 P, ATM            2.7218   1.5507  0.08174
 T, K             2783.94  2591.65  1541.46
 RHO, G/CC       1.0576-4 6.5272-5 5.8617-6
 H, CAL/G         0.00000  -337.11 -1672.04
 U, CAL/G         -623.26  -912.46 -2009.73
 G, CAL/G        -17457.5 -16588.8 -11338.2
 S, CAL/(G)(K)     6.2708   6.2708   6.2708

 M, (1/n)           8.876    8.951    9.071
 MW, MOL WT         8.876    8.951    9.071
 (dLV/dLP)t      -1.01096 -1.00669 -1.00002
 (dLV/dLT)p        1.2278   1.1481   1.0007
 Cp, CAL/(G)(K)    2.2611   1.9085   1.0385
 GAMMAs            1.1605   1.1719   1.2678
 SON VEL,M/SEC     1739.6   1679.6   1338.4
 MACH NUMBER        0.000    1.000    2.795

 TRANSPORT PROPERTIES (GASES ONLY)
   CONDUCTIVITY IN UNITS OF MILLICALORIES/(CM)(K)(SEC)

 VISC,MILLIPOISE  0.81180  0.76970  0.51923

  WITH EQUILIBRIUM REACTIONS

 Cp, CAL/(G)(K)    2.2611   1.9085   1.0385
 CONDUCTIVITY      4.3424   3.3317   0.8761
 PRANDTL NUMBER    0.4227   0.4409   0.6155

  WITH FROZEN REACTIONS

 Cp, CAL/(G)(K)    1.1917   1.1744   1.0332
 CONDUCTIVITY      1.5288   1.4222   0.8655
 PRANDTL NUMBER    0.6328   0.6356   0.6199

 PERFORMANCE PARAMETERS

 Ae/At                      1.0000   5.0000
 CSTAR, FT/SEC              8253.5   8253.5
 CF                         0.6676   1.4869
 Ivac,LB-SEC/LB              317.4    419.9
 Isp, LB-SEC/LB              171.3    381.4


 MASS FRACTIONS

 *H               0.00387  0.00246  0.00001
 *H2              0.12139  0.12229  0.12422
 H2O              0.85825  0.86666  0.87577
 *O               0.00054  0.00018  0.00000
 *OH              0.01561  0.00828  0.00000
 *O2              0.00034  0.00012  0.00000

  * THERMODYNAMIC PROPERTIES FITTED TO 20000.K

 NOTE. WEIGHT FRACTION OF FUEL IN TOTAL FUELS AND OF OXIDANT IN TOTAL OXIDANTS










              THEORETICAL ROCKET PERFORMANCE ASSUMING EQUILIBRIUM

           COMPOSITION DURING EXPANSION FROM INFINITE AREA COMBUSTOR

 Pin =    40.0 PSIA
 CASE = _______________

             REACTANT                    WT FRACTION      ENERGY      TEMP
                                          (SEE NOTE)      CAL/MOL       K  
 FUEL        H2                           1.0000000         0.000      0.000
 OXIDANT     O2                           1.0000000         0.000      0.000

 O/F=    3.75000  %FUEL= 21.052632  R,EQ.RATIO= 2.116449  PHI,EQ.RATIO= 2.116449

                 CHAMBER   THROAT     EXIT
 Pinf/P            1.0000   1.7480   32.192
 P, ATM            2.7218   1.5571  0.08455
 T, K             2854.17  2672.72  1657.00
 RHO, G/CC       1.0818-4 6.6731-5 5.9535-6
 H, CAL/G         0.00000  -327.87 -1647.65
 U, CAL/G         -609.29  -892.96 -1991.57
 G, CAL/G        -17309.5 -16536.9 -11696.7
 S, CAL/(G)(K)     6.0646   6.0646   6.0646

 M, (1/n)           9.309    9.399    9.574
 MW, MOL WT         9.309    9.399    9.574
 (dLV/dLP)t      -1.01432 -1.00938 -1.00006
 (dLV/dLT)p        1.2927   1.2032   1.0021
 Cp, CAL/(G)(K)    2.4388   2.0737   1.0252
 GAMMAs            1.1520   1.1604   1.2551
 SON VEL,M/SEC     1713.7   1656.4   1343.9
 MACH NUMBER        0.000    1.000    2.763

 TRANSPORT PROPERTIES (GASES ONLY)
   CONDUCTIVITY IN UNITS OF MILLICALORIES/(CM)(K)(SEC)

 VISC,MILLIPOISE  0.83945  0.79926  0.55630

  WITH EQUILIBRIUM REACTIONS

 Cp, CAL/(G)(K)    2.4388   2.0737   1.0252
 CONDUCTIVITY      4.8926   3.8680   0.9220
 PRANDTL NUMBER    0.4184   0.4285   0.6186

  WITH FROZEN REACTIONS

 Cp, CAL/(G)(K)    1.1500   1.1350   1.0107
 CONDUCTIVITY      1.5141   1.4155   0.8907
 PRANDTL NUMBER    0.6376   0.6409   0.6312

 PERFORMANCE PARAMETERS

 Ae/At                      1.0000   5.0000
 CSTAR, FT/SEC              8186.1   8186.1
 CF                         0.6638   1.4882
 Ivac,LB-SEC/LB              314.5    418.2
 Isp, LB-SEC/LB              168.9    378.6


 MASS FRACTIONS

 *H               0.00455  0.00312  0.00003
 *H2              0.10803  0.10879  0.11103
 H2O              0.86368  0.87448  0.88892
 *O               0.00100  0.00040  0.00000
 *OH              0.02203  0.01291  0.00002
 *O2              0.00071  0.00029  0.00000

  * THERMODYNAMIC PROPERTIES FITTED TO 20000.K

 NOTE. WEIGHT FRACTION OF FUEL IN TOTAL FUELS AND OF OXIDANT IN TOTAL OXIDANTS










              THEORETICAL ROCKET PERFORMANCE ASSUMING EQUILIBRIUM

           COMPOSITION DURING EXPANSION FROM INFINITE AREA COMBUSTOR

 Pin =    40.0 PSIA
 CASE = _______________

             REACTANT                    WT FRACTION      ENERGY      TEMP
                                          (SEE NOTE)      CAL/MOL       K  
 FUEL        H2                           1.0000000         0.000      0.000
 OXIDANT     O2                           1.0000000         0.000      0.000

 O/F=    4.00000  %FUEL= 20.000000  R,EQ.RATIO= 1.984171  PHI,EQ.RATIO= 1.984171

                 CHAMBER   THROAT     EXIT
 Pinf/P            1.0000   1.7421   31.134
 P, ATM            2.7218   1.5624  0.08742
 T, K             2914.80  2742.79  1771.81
 RHO, G/CC       1.1073-4 6.8270-5 6.0586-6
 H, CAL/G         0.00000  -318.97 -1620.00
 U, CAL/G         -595.29  -873.19 -1969.45
 G, CAL/G        -17130.5 -16438.6 -12033.1
 S, CAL/(G)(K)     5.8771   5.8771   5.8771

 M, (1/n)           9.730    9.835   10.076
 MW, MOL WT         9.730    9.835   10.076
 (dLV/dLP)t      -1.01805 -1.01250 -1.00018
 (dLV/dLT)p        1.3640   1.2660   1.0056
 Cp, CAL/(G)(K)    2.6248   2.2530   1.0245
 GAMMAs            1.1451   1.1511   1.2414
 SON VEL,M/SEC     1688.8   1633.8   1347.3
 MACH NUMBER        0.000    1.000    2.733

 TRANSPORT PROPERTIES (GASES ONLY)
   CONDUCTIVITY IN UNITS OF MILLICALORIES/(CM)(K)(SEC)

 VISC,MILLIPOISE  0.86437  0.82586  0.59287

  WITH EQUILIBRIUM REACTIONS

 Cp, CAL/(G)(K)    2.6248   2.2530   1.0245
 CONDUCTIVITY      5.4140   4.4003   0.9925
 PRANDTL NUMBER    0.4191   0.4229   0.6120

  WITH FROZEN REACTIONS

 Cp, CAL/(G)(K)    1.1117   1.0986   0.9900
 CONDUCTIVITY      1.4951   1.4035   0.9135
 PRANDTL NUMBER    0.6427   0.6464   0.6425

 PERFORMANCE PARAMETERS

 Ae/At                      1.0000   5.0000
 CSTAR, FT/SEC              8112.3   8112.3
 CF                         0.6607   1.4890
 Ivac,LB-SEC/LB              311.3    415.9
 Isp, LB-SEC/LB              166.6    375.4


 MASS FRACTIONS

 *H               0.00514  0.00373  0.00007
 *H2              0.09619  0.09675  0.09914
 H2O              0.86623  0.87943  0.90071
 *O               0.00168  0.00078  0.00000
 *OH              0.02942  0.01866  0.00008
 *O2              0.00134  0.00064  0.00000

  * THERMODYNAMIC PROPERTIES FITTED TO 20000.K

 NOTE. WEIGHT FRACTION OF FUEL IN TOTAL FUELS AND OF OXIDANT IN TOTAL OXIDANTS










              THEORETICAL ROCKET PERFORMANCE ASSUMING EQUILIBRIUM

           COMPOSITION DURING EXPANSION FROM INFINITE AREA COMBUSTOR

 Pin =    40.0 PSIA
 CASE = _______________

             REACTANT                    WT FRACTION      ENERGY      TEMP
                                          (SEE NOTE)      CAL/MOL       K  
 FUEL        H2                           1.0000000         0.000      0.000
 OXIDANT     O2                           1.0000000         0.000      0.000

 O/F=    4.25000  %FUEL= 19.047619  R,EQ.RATIO= 1.867455  PHI,EQ.RATIO= 1.867455

                 CHAMBER   THROAT     EXIT
 Pinf/P            1.0000   1.7373   30.148
 P, ATM            2.7218   1.5667  0.09028
 T, K             2967.09  2803.24  1884.01
 RHO, G/CC       1.1336-4 6.9869-5 6.1750-6
 H, CAL/G         0.00000  -310.47 -1589.89
 U, CAL/G         -581.45  -853.50 -1943.96
 G, CAL/G        -16929.4 -16305.0 -12339.5
 S, CAL/(G)(K)     5.7057   5.7057   5.7057

 M, (1/n)          10.141   10.258   10.574
 MW, MOL WT        10.141   10.258   10.574
 (dLV/dLP)t      -1.02212 -1.01601 -1.00044
 (dLV/dLT)p        1.4414   1.3361   1.0130
 Cp, CAL/(G)(K)    2.8179   2.4445   1.0432
 GAMMAs            1.1394   1.1435   1.2261
 SON VEL,M/SEC     1664.9   1611.8   1347.7
 MACH NUMBER        0.000    1.000    2.706

 TRANSPORT PROPERTIES (GASES ONLY)
   CONDUCTIVITY IN UNITS OF MILLICALORIES/(CM)(K)(SEC)

 VISC,MILLIPOISE  0.88681  0.84978  0.62842

  WITH EQUILIBRIUM REACTIONS

 Cp, CAL/(G)(K)    2.8179   2.4445   1.0432
 CONDUCTIVITY      5.9000   4.9134   1.1070
 PRANDTL NUMBER    0.4235   0.4228   0.5922

  WITH FROZEN REACTIONS

 Cp, CAL/(G)(K)    1.0764   1.0648   0.9705
 CONDUCTIVITY      1.4731   1.3875   0.9331
 PRANDTL NUMBER    0.6480   0.6521   0.6536

 PERFORMANCE PARAMETERS

 Ae/At                      1.0000   5.0000
 CSTAR, FT/SEC              8034.5   8034.5
 CF                         0.6582   1.4894
 Ivac,LB-SEC/LB              308.1    413.4
 Isp, LB-SEC/LB              164.4    371.9


 MASS FRACTIONS

 *H               0.00561  0.00428  0.00015
 HO2              0.00001  0.00000  0.00000
 *H2              0.08572  0.08604  0.08834
 H2O              0.86614  0.88164  0.91124
 *O               0.00261  0.00136  0.00000
 *OH              0.03757  0.02542  0.00027
 *O2              0.00234  0.00125  0.00000

  * THERMODYNAMIC PROPERTIES FITTED TO 20000.K

 NOTE. WEIGHT FRACTION OF FUEL IN TOTAL FUELS AND OF OXIDANT IN TOTAL OXIDANTS










              THEORETICAL ROCKET PERFORMANCE ASSUMING EQUILIBRIUM

           COMPOSITION DURING EXPANSION FROM INFINITE AREA COMBUSTOR

 Pin =    40.0 PSIA
 CASE = _______________

             REACTANT                    WT FRACTION      ENERGY      TEMP
                                          (SEE NOTE)      CAL/MOL       K  
 FUEL        H2                           1.0000000         0.000      0.000
 OXIDANT     O2                           1.0000000         0.000      0.000

 O/F=    4.50000  %FUEL= 18.181818  R,EQ.RATIO= 1.763707  PHI,EQ.RATIO= 1.763707

                 CHAMBER   THROAT     EXIT
 Pinf/P            1.0000   1.7334   29.263
 P, ATM            2.7218   1.5703  0.09301
 T, K             3012.04  2855.24  1990.99
 RHO, G/CC       1.1607-4 7.1515-5 6.3004-6
 H, CAL/G         0.00000  -302.35 -1558.21
 U, CAL/G         -567.88  -834.08 -1915.74
 G, CAL/G        -16712.4 -16144.8 -12605.3
 S, CAL/(G)(K)     5.5486   5.5486   5.5486

 M, (1/n)          10.540   10.671   11.067
 MW, MOL WT        10.540   10.671   11.067
 (dLV/dLP)t      -1.02651 -1.01991 -1.00094
 (dLV/dLT)p        1.5244   1.4134   1.0267
 Cp, CAL/(G)(K)    3.0164   2.6466   1.0883
 GAMMAs            1.1347   1.1372   1.2092
 SON VEL,M/SEC     1642.0   1590.6   1344.9
 MACH NUMBER        0.000    1.000    2.685

 TRANSPORT PROPERTIES (GASES ONLY)
   CONDUCTIVITY IN UNITS OF MILLICALORIES/(CM)(K)(SEC)

 VISC,MILLIPOISE  0.90698  0.87124  0.66231

  WITH EQUILIBRIUM REACTIONS

 Cp, CAL/(G)(K)    3.0164   2.6466   1.0883
 CONDUCTIVITY      6.3485   5.3989   1.2856
 PRANDTL NUMBER    0.4309   0.4271   0.5607

  WITH FROZEN REACTIONS

 Cp, CAL/(G)(K)    1.0438   1.0334   0.9517
 CONDUCTIVITY      1.4489   1.3685   0.9489
 PRANDTL NUMBER    0.6534   0.6579   0.6642

 PERFORMANCE PARAMETERS

 Ae/At                      1.0000   5.0000
 CSTAR, FT/SEC              7954.2   7954.2
 CF                         0.6561   1.4894
 Ivac,LB-SEC/LB              304.8    410.5
 Isp, LB-SEC/LB              162.2    368.2


 MASS FRACTIONS

 *H               0.00597  0.00473  0.00030
 HO2              0.00001  0.00000  0.00000
 *H2              0.07646  0.07652  0.07848
 H2O              0.86367  0.88132  0.92049
 *O               0.00382  0.00219  0.00000
 *OH              0.04625  0.03299  0.00073
 *O2              0.00382  0.00225  0.00000

  * THERMODYNAMIC PROPERTIES FITTED TO 20000.K

 NOTE. WEIGHT FRACTION OF FUEL IN TOTAL FUELS AND OF OXIDANT IN TOTAL OXIDANTS










              THEORETICAL ROCKET PERFORMANCE ASSUMING EQUILIBRIUM

           COMPOSITION DURING EXPANSION FROM INFINITE AREA COMBUSTOR

 Pin =    40.0 PSIA
 CASE = _______________

             REACTANT                    WT FRACTION      ENERGY      TEMP
                                          (SEE NOTE)      CAL/MOL       K  
 FUEL        H2                           1.0000000         0.000      0.000
 OXIDANT     O2                           1.0000000         0.000      0.000

 O/F=    4.75000  %FUEL= 17.391304  R,EQ.RATIO= 1.670881  PHI,EQ.RATIO= 1.670881

                 CHAMBER   THROAT     EXIT
 Pinf/P            1.0000   1.7301   28.493
 P, ATM            2.7218   1.5732  0.09553
 T, K             3050.48  2899.77  2090.11
 RHO, G/CC       1.1884-4 7.3201-5 6.4330-6
 H, CAL/G         0.00000  -294.60 -1525.79
 U, CAL/G         -554.65  -815.06 -1885.40
 G, CAL/G        -16484.3 -15964.5 -12820.4
 S, CAL/(G)(K)     5.4038   5.4038   5.4038

 M, (1/n)          10.929   11.072   11.550
 MW, MOL WT        10.929   11.072   11.550
 (dLV/dLP)t      -1.03118 -1.02416 -1.00180
 (dLV/dLT)p        1.6121   1.4973   1.0490
 Cp, CAL/(G)(K)    3.2173   2.8575   1.1655
 GAMMAs            1.1308   1.1321   1.1914
 SON VEL,M/SEC     1620.0   1570.1   1338.9
 MACH NUMBER        0.000    1.000    2.669

 TRANSPORT PROPERTIES (GASES ONLY)
   CONDUCTIVITY IN UNITS OF MILLICALORIES/(CM)(K)(SEC)

 VISC,MILLIPOISE  0.92506  0.89046  0.69386

  WITH EQUILIBRIUM REACTIONS

 Cp, CAL/(G)(K)    3.2173   2.8575   1.1655
 CONDUCTIVITY      6.7594   5.8528   1.5405
 PRANDTL NUMBER    0.4403   0.4347   0.5250

  WITH FROZEN REACTIONS

 Cp, CAL/(G)(K)    1.0136   1.0042   0.9333
 CONDUCTIVITY      1.4232   1.3473   0.9602
 PRANDTL NUMBER    0.6588   0.6637   0.6744

 PERFORMANCE PARAMETERS

 Ae/At                      1.0000   5.0000
 CSTAR, FT/SEC              7872.6   7872.6
 CF                         0.6543   1.4891
 Ivac,LB-SEC/LB              301.5    407.3
 Isp, LB-SEC/LB              160.1    364.4


 MASS FRACTIONS

 *H               0.00622  0.00507  0.00052
 HO2              0.00001  0.00001  0.00000
 *H2              0.06829  0.06808  0.06942
 H2O              0.85909  0.87865  0.92831
 *O               0.00530  0.00328  0.00002
 *OH              0.05519  0.04115  0.00172
 *O2              0.00589  0.00377  0.00002

  * THERMODYNAMIC PROPERTIES FITTED TO 20000.K

 NOTE. WEIGHT FRACTION OF FUEL IN TOTAL FUELS AND OF OXIDANT IN TOTAL OXIDANTS










              THEORETICAL ROCKET PERFORMANCE ASSUMING EQUILIBRIUM

           COMPOSITION DURING EXPANSION FROM INFINITE AREA COMBUSTOR

 Pin =    40.0 PSIA
 CASE = _______________

             REACTANT                    WT FRACTION      ENERGY      TEMP
                                          (SEE NOTE)      CAL/MOL       K  
 FUEL        H2                           1.0000000         0.000      0.000
 OXIDANT     O2                           1.0000000         0.000      0.000

 O/F=    5.00000  %FUEL= 16.666667  R,EQ.RATIO= 1.587337  PHI,EQ.RATIO= 1.587337

                 CHAMBER   THROAT     EXIT
 Pinf/P            1.0000   1.7274   27.843
 P, ATM            2.7218   1.5756  0.09776
 T, K             3083.15  2937.63  2179.38
 RHO, G/CC       1.2165-4 7.4918-5 6.5711-6
 H, CAL/G         0.00000  -287.21 -1493.27
 U, CAL/G         -541.82  -796.53 -1853.54
 G, CAL/G        -16248.7 -15769.1 -12979.0
 S, CAL/(G)(K)     5.2702   5.2702   5.2702

 M, (1/n)          11.308   11.462   12.021
 MW, MOL WT        11.308   11.462   12.021
 (dLV/dLP)t      -1.03604 -1.02873 -1.00310
 (dLV/dLT)p        1.7032   1.5869   1.0820
 Cp, CAL/(G)(K)    3.4161   3.0735   1.2776
 GAMMAs            1.1276   1.1278   1.1742
 SON VEL,M/SEC     1598.8   1550.3   1330.4
 MACH NUMBER        0.000    1.000    2.657

 TRANSPORT PROPERTIES (GASES ONLY)
   CONDUCTIVITY IN UNITS OF MILLICALORIES/(CM)(K)(SEC)

 VISC,MILLIPOISE  0.94122  0.90760  0.72263

  WITH EQUILIBRIUM REACTIONS

 Cp, CAL/(G)(K)    3.4161   3.0735   1.2776
 CONDUCTIVITY      7.1337   6.2737   1.8696
 PRANDTL NUMBER    0.4507   0.4446   0.4938

  WITH FROZEN REACTIONS

 Cp, CAL/(G)(K)    0.9855   0.9769   0.9152
 CONDUCTIVITY      1.3966   1.3246   0.9668
 PRANDTL NUMBER    0.6641   0.6694   0.6840

 PERFORMANCE PARAMETERS

 Ae/At                      1.0000   5.0000
 CSTAR, FT/SEC              7790.4   7790.4
 CF                         0.6529   1.4887
 Ivac,LB-SEC/LB              298.3    403.9
 Isp, LB-SEC/LB              158.1    360.5


 MASS FRACTIONS

 *H               0.00637  0.00531  0.00081
 HO2              0.00002  0.00001  0.00000
 *H2              0.06108  0.06063  0.06109
 H2O              0.85269  0.87387  0.93445
 *O               0.00703  0.00463  0.00005
 *OH              0.06416  0.04962  0.00352
 *O2              0.00865  0.00593  0.00008

  * THERMODYNAMIC PROPERTIES FITTED TO 20000.K

 NOTE. WEIGHT FRACTION OF FUEL IN TOTAL FUELS AND OF OXIDANT IN TOTAL OXIDANTS


