
 *******************************************************************************

         NASA-GLENN CHEMICAL EQUILIBRIUM PROGRAM CEA, OCTOBER 18, 2002
                   BY  BONNIE MCBRIDE AND SANFORD GORDON
      REFS: NASA RP-1311, PART I, 1994 AND NASA RP-1311, PART II, 1996

 *******************************************************************************



 reac
  fuel H2(L)  H 2
  h,cal=-2154.0      t(k)=20.27       wt%=100.
  oxid O2(L)  O 2
  h,cal=-3102.      t(k)=90.18       wt%=100.
  
 prob case=LOX_/_LH2
  rocket equilibrium   p,psia=1000.000000,  supar=40.000000,
  o/f=6.000000,
  
  
 output calories  transport
 end

 OPTIONS: TP=F  HP=F  SP=F  TV=F  UV=F  SV=F  DETN=F  SHOCK=F  REFL=F  INCD=F
 RKT=T  FROZ=F  EQL=T  IONS=F  SIUNIT=F  DEBUGF=F  SHKDBG=F  DETDBG=F  TRNSPT=T

 TRACE= 0.00E+00  S/R= 0.000000E+00  H/R= 0.000000E+00  U/R= 0.000000E+00

 Pc,BAR =    68.947304

 Pc/P =

 SUBSONIC AREA RATIOS =

 SUPERSONIC AREA RATIOS =    40.0000

 NFZ=  1  Mdot/Ac= 0.000000E+00  Ac/At= 0.000000E+00

    REACTANT          WT.FRAC   (ENERGY/R),K   TEMP,K  DENSITY
        EXPLODED FORMULA
 F: H2(L)            1.000000  -0.108393E+04    20.27  1.6340
          H  2.00000
 O: O2(L)            1.000000  -0.156098E+04    90.18  1.4070
          O  2.00000

  SPECIES BEING CONSIDERED IN THIS SYSTEM
 (CONDENSED PHASE MAY HAVE NAME LISTED SEVERAL TIMES)
  LAST thermo.inp UPDATE:    9/09/04

  g 6/97  *H               g 4/02  HO2              tpis78  *H2            
  g 8/89  H2O              g 6/99  H2O2             g 5/97  *O             
  g 4/02  *OH              tpis89  *O2              g 8/01  O3             
  g11/99  H2O(cr)          g 8/01  H2O(L)           g 8/01  H2O(L)         

 SPECIES WITH TRANSPORT PROPERTIES

        PURE SPECIES

  H                 H2                H2O               O               
  OH                O2              

     BINARY INTERACTIONS

     H               H2              
     H               O               
     H2              H2O             
     H2              O2              
     H2O             O2              
     O               O2              


 O/F =   6.000000

                       EFFECTIVE FUEL     EFFECTIVE OXIDANT        MIXTURE
 ENTHALPY                  h(2)/R              h(1)/R               h0/R
 (KG-MOL)(K)/KG       -0.53769505E+03     -0.48782395E+02     -0.11862706E+03

 KG-FORM.WT./KG             bi(2)               bi(1)               b0i
  *H                   0.99212255E+00      0.00000000E+00      0.14173179E+00
  *O                   0.00000000E+00      0.62502344E-01      0.53573438E-01

 POINT ITN      T            H           O 
   1    9    3483.350      -9.273     -16.160
 Pinf/Pt = 1.734909
   2    4    3291.075      -9.450     -16.510
 Pinf/Pt = 1.735136
   2    1    3291.030      -9.450     -16.510
   3    5    1392.743     -10.935     -27.365
   3    3    1440.950     -10.895     -26.697





              THEORETICAL ROCKET PERFORMANCE ASSUMING EQUILIBRIUM

           COMPOSITION DURING EXPANSION FROM INFINITE AREA COMBUSTOR

 Pinj =  1000.0 PSIA
 CASE = LOX_/_LH2      

             REACTANT                    WT FRACTION      ENERGY      TEMP
                                          (SEE NOTE)      CAL/MOL       K  
 FUEL        H2(L)                        1.0000000     -2154.000     20.270
 OXIDANT     O2(L)                        1.0000000     -3102.000     90.180

 REACTANT DENSITY=  1.4355 G/CC

 O/F=    6.00000  %FUEL= 14.285714  R,EQ.RATIO= 1.322780  PHI,EQ.RATIO= 1.322780

                 CHAMBER   THROAT     EXIT
 Pinf/P            1.0000   1.7351   459.06
 P, ATM            68.046   39.216  0.14823
 T, K             3483.35  3291.03  1440.95
 RHO, G/CC       3.2038-3 1.9758-3 1.7690-5
 H, CAL/G         -235.74  -509.81 -2372.54
 U, CAL/G         -750.09  -990.49 -2575.47
 G, CAL/G        -15090.3 -14544.2 -8517.40
 S, CAL/(G)(K)     4.2644   4.2644   4.2644

 M, (1/n)          13.458   13.606   14.111
 (dLV/dLP)t      -1.02525 -1.01954 -1.00000
 (dLV/dLT)p        1.4496   1.3682   1.0001
 Cp, CAL/(G)(K)    2.0951   1.9171   0.7308
 GAMMAs            1.1401   1.1403   1.2388
 SON VEL,M/SEC     1566.3   1514.4   1025.6
 MACH NUMBER        0.000    1.000    4.123

 TRANSPORT PROPERTIES (GASES ONLY)
   CONDUCTIVITY IN UNITS OF MILLICALORIES/(CM)(K)(SEC)

 VISC,MILLIPOISE   1.0588   1.0153  0.52745

  WITH EQUILIBRIUM REACTIONS

 Cp, CAL/(G)(K)    2.0951   1.9171   0.7308
 CONDUCTIVITY      4.1444   3.6272   0.5411
 PRANDTL NUMBER    0.5352   0.5366   0.7123

  WITH FROZEN REACTIONS

 Cp, CAL/(G)(K)    0.9029   0.8950   0.7302
 CONDUCTIVITY      1.3519   1.2760   0.5398
 PRANDTL NUMBER    0.7071   0.7121   0.7135

 PERFORMANCE PARAMETERS

 Ae/At                      1.0000   40.000
 CSTAR, FT/SEC              7560.0   7560.0
 CF                         0.6572   1.8351
 Ivac,LB-SEC/LB              289.8    451.7
 Isp, LB-SEC/LB              154.4    431.2


 MOLE FRACTIONS

 *H               0.03417  0.02810  0.00001
 HO2              0.00003  0.00002  0.00000
 *H2              0.24832  0.24538  0.24401
 H2O              0.66590  0.68751  0.75598
 H2O2             0.00001  0.00001  0.00000
 *O               0.00334  0.00217  0.00000
 *OH              0.04478  0.03446  0.00000
 *O2              0.00345  0.00236  0.00000

  * THERMODYNAMIC PROPERTIES FITTED TO 20000.K

    PRODUCTS WHICH WERE CONSIDERED BUT WHOSE MOLE FRACTIONS
    WERE LESS THAN 5.000000E-06 FOR ALL ASSIGNED CONDITIONS

 O3              H2O(cr)         H2O(L)         

 NOTE. WEIGHT FRACTION OF FUEL IN TOTAL FUELS AND OF OXIDANT IN TOTAL OXIDANTS



  
  
  
