
 *******************************************************************************

         NASA-GLENN CHEMICAL EQUILIBRIUM PROGRAM CEA, OCTOBER 18, 2002
                   BY  BONNIE MCBRIDE AND SANFORD GORDON
      REFS: NASA RP-1311, PART I, 1994 AND NASA RP-1311, PART II, 1996

 *******************************************************************************



 reac
  fuel CH3OH(L)   C 1 H 4 O 1
  h,cal=-57040.0      t(k)=298.15       wt%=100.
  oxid H2O2(L) H 2 O 2  wt%=90.00
  h,cal=-44880.0     t(k)=298.15  rho.g/cc=1.407
  oxid = WATER H 2.0 O 1.0 wt%= 10.0
  h,cal=-68317. t(k)=298.15 rho.g/cc=1.0
  
 prob case=RocketCEA,
  rocket frozen nfz=3    p,psia=1000.000000,  supar=40.000000,
  fac  ac/at=2.500000,
  o/f=0.000000,
  
  
 output calories  transport
 end

 OPTIONS: TP=F  HP=F  SP=F  TV=F  UV=F  SV=F  DETN=F  SHOCK=F  REFL=F  INCD=F
 RKT=T  FROZ=T  EQL=T  IONS=F  SIUNIT=F  DEBUGF=F  SHKDBG=F  DETDBG=F  TRNSPT=T

 TRACE= 0.00E+00  S/R= 0.000000E+00  H/R= 0.000000E+00  U/R= 0.000000E+00

 Pc,BAR =    68.947304

 Pc/P =

 SUBSONIC AREA RATIOS =

 SUPERSONIC AREA RATIOS =    40.0000

 NFZ=  3  Mdot/Ac= 0.000000E+00  Ac/At= 2.500000E+00

 O/F =   0.000000

                       EFFECTIVE FUEL     EFFECTIVE OXIDANT        MIXTURE
 ENTHALPY                  h(2)/R              h(1)/R               h0/R
 (KG-MOL)(K)/KG       -0.89581187E+03     -0.78839169E+03     -0.89581187E+03

 KG-FORM.WT./KG             bi(2)               bi(1)               b0i
  *C                   0.31209174E-01      0.00000000E+00      0.31209174E-01
  *H                   0.12483670E+00      0.64020015E-01      0.12483670E+00
  *O                   0.31209174E-01      0.58469172E-01      0.31209174E-01

 POINT ITN      T            C           H           O 
   1   19     788.987      -0.570      -7.886     -42.225
 ADD  C(gr)          
   1    3     793.738      -1.227      -7.752     -41.953
   2    2     792.775      -1.225      -7.768     -42.014
 Pinf/Pt = 1.746841
   3    4     738.499      -1.148      -8.071     -44.436
 Pinf/Pt = 1.750281
   3    2     738.311      -1.148      -8.072     -44.445
   4    2     789.905      -1.221      -7.783     -42.134
   4    2     789.367      -1.220      -7.786     -42.157
   4    2     789.311      -1.220      -7.786     -42.159
   4    1     789.310      -1.220      -7.786     -42.159
   2    2     793.127      -1.226      -7.762     -41.992
 Pinf/Pt = 1.746880
   3    4     738.778      -1.148      -8.065     -44.414
 Pinf/Pt = 1.750331
   3    2     738.590      -1.148      -8.066     -44.423
   4    2     790.253      -1.222      -7.777     -42.112
   4    2     789.715      -1.221      -7.780     -42.134
   4    2     789.658      -1.221      -7.780     -42.137
   4    1     789.657      -1.221      -7.780     -42.137
 END OF CHAMBER ITERATIONS

 WARNING!!  ASSIGNED pip =   0.00000 IS NOT PERMITTED
 TO BE LESS THAN  Pinj/Pc =  1.07020. POINT OMITTED (ROCKET)
   4    6     280.832      -0.693     -14.222    -100.393
   4    1     280.481      -0.692     -14.232    -100.502
 ADD  H2O(L)         
   4    3     313.586      -0.691     -13.376     -91.297
   4    3     317.112      -0.692     -13.253     -90.331
   4    2     317.118      -0.692     -13.253     -90.329





              THEORETICAL ROCKET PERFORMANCE ASSUMING EQUILIBRIUM

            COMPOSITION DURING EXPANSION FROM FINITE AREA COMBUSTOR

 Pinj =  1000.0 PSIA
 Ac/At =  2.5000      Pinj/Pinf =  1.033373
 CASE = RocketCEA,     

             REACTANT                    WT FRACTION      ENERGY      TEMP
                                          (SEE NOTE)      CAL/MOL       K  
 fuel        CH3OH(L)                   100.0000000    -57040.000    298.150
 oxid        H2O2(L)                     90.0000000    -44880.000    298.150
 oxid        WATER                       10.0000000    -68317.000    298.150

 REACTANT DENSITY=  1.3520 G/CC

 O/F=    0.00000  %FUEL=100.000000  R,EQ.RATIO= 4.000000  PHI,EQ.RATIO= 0.000000

                 INJECTOR  COMB END  THROAT     EXIT
 Pinj/P            1.0000   1.0702   1.8087   482.28
 P, ATM            68.046   63.582   37.620  0.14109
 T, K              793.74   789.66   738.59   317.12
 RHO, G/CC       2.1582-2 2.0272-2 1.2906-2 1.1871-4
 H, CAL/G        -1780.17 -1782.84 -1821.28 -2083.87
 U, CAL/G        -1856.53 -1858.79 -1891.87 -2112.66
 G, CAL/G        -3652.01 -3647.55 -3565.40 -2832.72
 S, CAL/(G)(K)     2.3583   2.3614   2.3614   2.3614

 M, (1/n)          20.658   20.659   20.792   21.894
 MW, MOL WT        18.247   18.233   18.186   16.301
 (dLV/dLP)t      -1.01627 -1.01622 -1.01316 -3.12899
 (dLV/dLT)p        1.2293   1.2294   1.1934  36.3092
 Cp, CAL/(G)(K)    0.9440   0.9434   0.8805  53.6175
 GAMMAs            1.1597   1.1599   1.1647   1.1146
 SON VEL,M/SEC      608.7    607.1    586.5    366.4
 MACH NUMBER        0.000    0.246    1.000    4.351

 TRANSPORT PROPERTIES (GASES ONLY)
   CONDUCTIVITY IN UNITS OF MILLICALORIES/(CM)(K)(SEC)

 VISC,MILLIPOISE  0.42331  0.42183  0.40157  0.22144

  WITH EQUILIBRIUM REACTIONS

 Cp, CAL/(G)(K)    0.9880   0.9878   0.9230   0.4748
 CONDUCTIVITY      1.0853   1.0848   0.9848   0.1561
 PRANDTL NUMBER    0.3853   0.3841   0.3764   0.6737

  WITH FROZEN REACTIONS

 Cp, CAL/(G)(K)    0.6200   0.6187   0.6005   0.4707
 CONDUCTIVITY      0.4253   0.4230   0.3854   0.1502
 PRANDTL NUMBER    0.6171   0.6170   0.6256   0.6939

 PERFORMANCE PARAMETERS

 Ae/At                      2.5000   1.0000   40.000
 CSTAR, FT/SEC              2891.8   2891.8   2891.8
 CF                         0.1695   0.6654   1.8086
 Ivac,LB-SEC/LB              232.2    111.2    170.3
 Isp, LB-SEC/LB               15.2     59.8    162.6


 MOLE FRACTIONS

 CH4              0.35414  0.35346  0.35132  0.26310
 *CO              0.00318  0.00306  0.00155  0.00000
 *CO2             0.09540  0.09496  0.08932  0.00879
 C2H6             0.00004  0.00004  0.00002  0.00000
 *H2              0.05506  0.05498  0.04506  0.00011
 H2O              0.37550  0.37604  0.38738  0.47254
 C(gr)            0.11668  0.11746  0.12534  0.23684
 H2O(L)           0.00000  0.00000  0.00000  0.01862

  * THERMODYNAMIC PROPERTIES FITTED TO 20000.K

    PRODUCTS WHICH WERE CONSIDERED BUT WHOSE MOLE FRACTIONS
    WERE LESS THAN 5.000000E-06 FOR ALL ASSIGNED CONDITIONS

 *C              *CH             CH2             CH3             CH2OH          
 CH3O            CH3OH           CH3OOH          COOH            *C2            
 C2H             C2H2,acetylene  C2H2,vinylidene CH2CO,ketene    O(CH)2O        
 HO(CO)2OH       C2H3,vinyl      CH3CO,acetyl    C2H4            C2H4O,ethylen-o
 CH3CHO,ethanal  CH3COOH         OHCH2COOH       C2H5            C2H5OH         
 CH3OCH3         CH3O2CH3        C2O             *C3             C3H3,1-propynl 
 C3H3,2-propynl  C3H4,allene     C3H4,propyne    C3H4,cyclo-     C3H5,allyl     
 C3H6,propylene  C3H6,cyclo-     C3H6O,propylox  C3H6O,acetone   C3H6O,propanal 
 C3H7,n-propyl   C3H7,i-propyl   C3H8            C3H8O,1propanol C3H8O,2propanol
 C3O2            *C4             C4H2,butadiyne  C4H4,1,3-cyclo- C4H6,butadiene 
 C4H6,1butyne    C4H6,2butyne    C4H6,cyclo-     C4H8,1-butene   C4H8,cis2-buten
 C4H8,tr2-butene C4H8,isobutene  C4H8,cyclo-     (CH3COOH)2      C4H9,n-butyl   
 C4H9,i-butyl    C4H9,s-butyl    C4H9,t-butyl    C4H10,n-butane  C4H10,isobutane
 *C5             C5H6,1,3cyclo-  C5H8,cyclo-     C5H10,1-pentene C5H10,cyclo-   
 C5H11,pentyl    C5H11,t-pentyl  C5H12,n-pentane C5H12,i-pentane CH3C(CH3)2CH3  
 C6H2            C6H5,phenyl     C6H5O,phenoxy   C6H6            C6H5OH,phenol  
 C6H10,cyclo-    C6H12,1-hexene  C6H12,cyclo-    C6H13,n-hexyl   C6H14,n-hexane 
 C7H7,benzyl     C7H8            C7H8O,cresol-mx C7H14,1-heptene C7H15,n-heptyl 
 C7H16,n-heptane C7H16,2-methylh C8H8,styrene    C8H10,ethylbenz C8H16,1-octene 
 C8H17,n-octyl   C8H18,n-octane  C8H18,isooctane C9H19,n-nonyl   C10H8,naphthale
 C10H21,n-decyl  C12H9,o-bipheny C12H10,biphenyl *H              HCO            
 HCCO            HO2             HCHO,formaldehy HCOOH           H2O2           
 (HCOOH)2        *O              *OH             *O2             O3             
 H2O(cr)        

 NOTE. WEIGHT FRACTION OF FUEL IN TOTAL FUELS AND OF OXIDANT IN TOTAL OXIDANTS

 WARNING!!  FOR FROZEN PERFORMANCE, SUBSONIC AREA 
 RATIOS WERE OMITTED SINCE nfz IS GREATER THAN 1 (ROCKET)





              THEORETICAL ROCKET PERFORMANCE ASSUMING EQUILIBRIUM

            COMPOSITION DURING EXPANSION FROM FINITE AREA COMBUSTOR

 Pinj =  1000.0 PSIA
 Ac/At =  2.5000      Pinj/Pinf =  1.033373
 CASE = RocketCEA,     

             REACTANT                    WT FRACTION      ENERGY      TEMP
                                          (SEE NOTE)      CAL/MOL       K  
 fuel        CH3OH(L)                   100.0000000    -57040.000    298.150
 oxid        H2O2(L)                     90.0000000    -44880.000    298.150
 oxid        WATER                       10.0000000    -68317.000    298.150

 REACTANT DENSITY=  1.3520 G/CC

 O/F=    0.00000  %FUEL=100.000000  R,EQ.RATIO= 4.000000  PHI,EQ.RATIO= 0.000000

                 INJECTOR  COMB END  THROAT
 Pinj/P            1.0000   1.0702   1.8087
 P, ATM            68.046   63.582   37.620
 T, K              793.74   789.66   738.59
 RHO, G/CC       2.1582-2 2.0272-2 1.2906-2
 H, CAL/G        -1780.17 -1782.84 -1821.28
 U, CAL/G        -1856.53 -1858.79 -1891.87
 G, CAL/G        -3652.01 -3647.55 -3565.40
 S, CAL/(G)(K)     2.3583   2.3614   2.3614

 M, (1/n)          20.658   20.659   20.792
 MW, MOL WT        18.247   18.233   18.186
 (dLV/dLP)t      -1.01627 -1.01622 -1.01316
 (dLV/dLT)p        1.2293   1.2294   1.1934
 Cp, CAL/(G)(K)    0.9440   0.9434   0.8805
 GAMMAs            1.1597   1.1599   1.1647
 SON VEL,M/SEC      608.7    607.1    586.5
 MACH NUMBER        0.000    0.246    1.000

 TRANSPORT PROPERTIES (GASES ONLY)
   CONDUCTIVITY IN UNITS OF MILLICALORIES/(CM)(K)(SEC)

 VISC,MILLIPOISE  0.42331  0.42183      NaN

  WITH EQUILIBRIUM REACTIONS

 Cp, CAL/(G)(K)    0.9880   0.9878   0.9230
 CONDUCTIVITY      1.0853   1.0848   0.9848
 PRANDTL NUMBER    0.3853   0.3841   0.3764

  WITH FROZEN REACTIONS

 Cp, CAL/(G)(K)    0.6200   0.6187   0.4174
 CONDUCTIVITY      0.4253   0.4230      NaN
 PRANDTL NUMBER    0.6171   0.6170      NaN

 PERFORMANCE PARAMETERS

 Ae/At                      2.5000   1.0000
 CSTAR, FT/SEC              2891.8   2891.8
 CF                         0.1695   0.6654
 Ivac,LB-SEC/LB              232.2    111.2
 Isp, LB-SEC/LB               15.2     59.8


 MOLE FRACTIONS

 CH4              0.35414  0.35346  0.35132
 *CO              0.00318  0.00306  0.00155
 *CO2             0.09540  0.09496  0.08932
 C2H6             0.00004  0.00004  0.00002
 *H2              0.05506  0.05498  0.04506
 H2O              0.37550  0.37604  0.38738
 C(gr)            0.11668  0.11746  0.12534

  * THERMODYNAMIC PROPERTIES FITTED TO 20000.K

    PRODUCTS WHICH WERE CONSIDERED BUT WHOSE MOLE FRACTIONS
    WERE LESS THAN 5.000000E-06 FOR ALL ASSIGNED CONDITIONS

 *C              *CH             CH2             CH3             CH2OH          
 CH3O            CH3OH           CH3OOH          COOH            *C2            
 C2H             C2H2,acetylene  C2H2,vinylidene CH2CO,ketene    O(CH)2O        
 HO(CO)2OH       C2H3,vinyl      CH3CO,acetyl    C2H4            C2H4O,ethylen-o
 CH3CHO,ethanal  CH3COOH         OHCH2COOH       C2H5            C2H5OH         
 CH3OCH3         CH3O2CH3        C2O             *C3             C3H3,1-propynl 
 C3H3,2-propynl  C3H4,allene     C3H4,propyne    C3H4,cyclo-     C3H5,allyl     
 C3H6,propylene  C3H6,cyclo-     C3H6O,propylox  C3H6O,acetone   C3H6O,propanal 
 C3H7,n-propyl   C3H7,i-propyl   C3H8            C3H8O,1propanol C3H8O,2propanol
 C3O2            *C4             C4H2,butadiyne  C4H4,1,3-cyclo- C4H6,butadiene 
 C4H6,1butyne    C4H6,2butyne    C4H6,cyclo-     C4H8,1-butene   C4H8,cis2-buten
 C4H8,tr2-butene C4H8,isobutene  C4H8,cyclo-     (CH3COOH)2      C4H9,n-butyl   
 C4H9,i-butyl    C4H9,s-butyl    C4H9,t-butyl    C4H10,n-butane  C4H10,isobutane
 *C5             C5H6,1,3cyclo-  C5H8,cyclo-     C5H10,1-pentene C5H10,cyclo-   
 C5H11,pentyl    C5H11,t-pentyl  C5H12,n-pentane C5H12,i-pentane CH3C(CH3)2CH3  
 C6H2            C6H5,phenyl     C6H5O,phenoxy   C6H6            C6H5OH,phenol  
 C6H10,cyclo-    C6H12,1-hexene  C6H12,cyclo-    C6H13,n-hexyl   C6H14,n-hexane 
 C7H7,benzyl     C7H8            C7H8O,cresol-mx C7H14,1-heptene C7H15,n-heptyl 
 C7H16,n-heptane C7H16,2-methylh C8H8,styrene    C8H10,ethylbenz C8H16,1-octene 
 C8H17,n-octyl   C8H18,n-octane  C8H18,isooctane C9H19,n-nonyl   C10H8,naphthale
 C10H21,n-decyl  C12H9,o-bipheny C12H10,biphenyl *H              HCO            
 HCCO            HO2             HCHO,formaldehy HCOOH           H2O2           
 (HCOOH)2        *O              *OH             *O2             O3             
 H2O(cr)         H2O(L)         

 NOTE. WEIGHT FRACTION OF FUEL IN TOTAL FUELS AND OF OXIDANT IN TOTAL OXIDANTS





           THEORETICAL ROCKET PERFORMANCE ASSUMING FROZEN COMPOSITION
                                 AFTER POINT 3

 Pinj =  1000.0 PSIA
 Ac/At =  2.5000      Pinj/Pinf =  1.033373
 CASE = RocketCEA,     

             REACTANT                    WT FRACTION      ENERGY      TEMP
                                          (SEE NOTE)      CAL/MOL       K  
 fuel        CH3OH(L)                   100.0000000    -57040.000    298.150
 oxid        H2O2(L)                     90.0000000    -44880.000    298.150
 oxid        WATER                       10.0000000    -68317.000    298.150

 REACTANT DENSITY=  1.3520 G/CC

 O/F=    0.00000  %FUEL=100.000000  R,EQ.RATIO= 4.000000  PHI,EQ.RATIO= 0.000000

                 INJECTOR  COMB END  THROAT
 Pinj/P            1.0000   1.0702   1.8087
 P, ATM            68.046   63.582   37.620
 T, K              793.74   789.66   738.59
 RHO, G/CC       2.1582-2 2.0272-2 1.2906-2
 H, CAL/G        -1780.17 -1782.84 -1821.28
 U, CAL/G        -1856.53 -1858.79 -1891.87
 G, CAL/G        -3652.01 -3647.55 -3565.40
 S, CAL/(G)(K)     2.3583   2.3614   2.3614

 M, (1/n)          20.658   20.659   20.792
 MW, MOL WT        18.247   18.233   18.186
 Cp, CAL/(G)(K)    0.9440   0.9434   0.8805
 GAMMAs            1.1597   1.1599   1.1647
 SON VEL,M/SEC      608.7    607.1    586.5
 MACH NUMBER        0.000    0.246    1.000

 TRANSPORT PROPERTIES (GASES ONLY)
   CONDUCTIVITY IN UNITS OF MILLICALORIES/(CM)(K)(SEC)

 VISC,MILLIPOISE  0.42331  0.42183      NaN

  WITH FROZEN REACTIONS

 Cp, CAL/(G)(K)    0.6200   0.6187   0.4174
 CONDUCTIVITY      0.4253   0.4230      NaN
 PRANDTL NUMBER    0.6171   0.6170      NaN

 PERFORMANCE PARAMETERS

 Ae/At                      2.5000   1.0000
 CSTAR, FT/SEC              2891.8   2891.8
 CF                         0.1695   0.6654
 Ivac,LB-SEC/LB              232.2    111.2
 Isp, LB-SEC/LB               15.2     59.8

 MOLE FRACTIONS

 CH4             0.35263   *CO             0.00319   *CO2            0.09505
 C2H6            0.00004   *H2             0.05548   H2O             0.37428
 C(gr)           0.11662

  * THERMODYNAMIC PROPERTIES FITTED TO 20000.K

    PRODUCTS WHICH WERE CONSIDERED BUT WHOSE MOLE FRACTIONS
    WERE LESS THAN 5.000000E-06 FOR ALL ASSIGNED CONDITIONS

 *C              *CH             CH2             CH3             CH2OH          
 CH3O            CH3OH           CH3OOH          COOH            *C2            
 C2H             C2H2,acetylene  C2H2,vinylidene CH2CO,ketene    O(CH)2O        
 HO(CO)2OH       C2H3,vinyl      CH3CO,acetyl    C2H4            C2H4O,ethylen-o
 CH3CHO,ethanal  CH3COOH         OHCH2COOH       C2H5            C2H5OH         
 CH3OCH3         CH3O2CH3        C2O             *C3             C3H3,1-propynl 
 C3H3,2-propynl  C3H4,allene     C3H4,propyne    C3H4,cyclo-     C3H5,allyl     
 C3H6,propylene  C3H6,cyclo-     C3H6O,propylox  C3H6O,acetone   C3H6O,propanal 
 C3H7,n-propyl   C3H7,i-propyl   C3H8            C3H8O,1propanol C3H8O,2propanol
 C3O2            *C4             C4H2,butadiyne  C4H4,1,3-cyclo- C4H6,butadiene 
 C4H6,1butyne    C4H6,2butyne    C4H6,cyclo-     C4H8,1-butene   C4H8,cis2-buten
 C4H8,tr2-butene C4H8,isobutene  C4H8,cyclo-     (CH3COOH)2      C4H9,n-butyl   
 C4H9,i-butyl    C4H9,s-butyl    C4H9,t-butyl    C4H10,n-butane  C4H10,isobutane
 *C5             C5H6,1,3cyclo-  C5H8,cyclo-     C5H10,1-pentene C5H10,cyclo-   
 C5H11,pentyl    C5H11,t-pentyl  C5H12,n-pentane C5H12,i-pentane CH3C(CH3)2CH3  
 C6H2            C6H5,phenyl     C6H5O,phenoxy   C6H6            C6H5OH,phenol  
 C6H10,cyclo-    C6H12,1-hexene  C6H12,cyclo-    C6H13,n-hexyl   C6H14,n-hexane 
 C7H7,benzyl     C7H8            C7H8O,cresol-mx C7H14,1-heptene C7H15,n-heptyl 
 C7H16,n-heptane C7H16,2-methylh C8H8,styrene    C8H10,ethylbenz C8H16,1-octene 
 C8H17,n-octyl   C8H18,n-octane  C8H18,isooctane C9H19,n-nonyl   C10H8,naphthale
 C10H21,n-decyl  C12H9,o-bipheny C12H10,biphenyl *H              HCO            
 HCCO            HO2             HCHO,formaldehy HCOOH           H2O2           
 (HCOOH)2        *O              *OH             *O2             O3             
 H2O(cr)         H2O(L)         

 NOTE. WEIGHT FRACTION OF FUEL IN TOTAL FUELS AND OF OXIDANT IN TOTAL OXIDANTS



