
 *******************************************************************************

         NASA-GLENN CHEMICAL EQUILIBRIUM PROGRAM CEA, OCTOBER 18, 2002
                   BY  BONNIE MCBRIDE AND SANFORD GORDON
      REFS: NASA RP-1311, PART I, 1994 AND NASA RP-1311, PART II, 1996

 *******************************************************************************



 reac
  fuel H2(L)  H 2
  h,cal=-2154.0      t(k)=20.27       wt%=100.
  oxid O2(L)  O 2
  h,cal=-3102.      t(k)=90.18       wt%=100.
  
 prob case=LOX_/_LH2
  rocket equilibrium  p,psia=100.000000, supar=40.000000,
  o/f=1.000000
  
 outp   calories
  
 end

 OPTIONS: TP=F  HP=F  SP=F  TV=F  UV=F  SV=F  DETN=F  SHOCK=F  REFL=F  INCD=F
 RKT=T  FROZ=F  EQL=T  IONS=F  SIUNIT=F  DEBUGF=F  SHKDBG=F  DETDBG=F  TRNSPT=F

 TRACE= 0.00E+00  S/R= 0.000000E+00  H/R= 0.000000E+00  U/R= 0.000000E+00

 Pc,BAR =     6.894730

 Pc/P =

 SUBSONIC AREA RATIOS =

 SUPERSONIC AREA RATIOS =    40.0000

 NFZ=  1  Mdot/Ac= 0.000000E+00  Ac/At= 0.000000E+00

    REACTANT          WT.FRAC   (ENERGY/R),K   TEMP,K  DENSITY
        EXPLODED FORMULA
 F: H2(L)            1.000000  -0.108393E+04    20.27  1.6340
          H  2.00000
 O: O2(L)            1.000000  -0.156098E+04    90.18  0.1000
          O  2.00000

  SPECIES BEING CONSIDERED IN THIS SYSTEM
 (CONDENSED PHASE MAY HAVE NAME LISTED SEVERAL TIMES)
  LAST thermo.inp UPDATE:    9/09/04

  g 6/97  *H               g 4/02  HO2              tpis78  *H2            
  g 8/89  H2O              g 6/99  H2O2             g 5/97  *O             
  g 4/02  *OH              tpis89  *O2              g 8/01  O3             
  g11/99  H2O(cr)          g 8/01  H2O(L)           g 8/01  H2O(L)         

 O/F =   1.000000

                       EFFECTIVE FUEL     EFFECTIVE OXIDANT        MIXTURE
 ENTHALPY                  h(2)/R              h(1)/R               h0/R
 (KG-MOL)(K)/KG       -0.53769505E+03     -0.48782395E+02     -0.29323872E+03

 KG-FORM.WT./KG             bi(2)               bi(1)               b0i
  *H                   0.99212255E+00      0.00000000E+00      0.49606127E+00
  *O                   0.00000000E+00      0.62502344E-01      0.31251172E-01

 POINT ITN      T            H           O 
   1   10     977.479      -7.826     -39.037
 Pinf/Pt = 1.868006
   2    3     827.350      -7.941     -44.342
 Pinf/Pt = 1.874529
   2    2     826.573      -7.942     -44.374
   3    7     155.750     -10.676    -195.838
 ADD  H2O(cr)        
   3    4     248.504     -10.224    -126.702
   3    3     250.237     -10.164    -125.834





              THEORETICAL ROCKET PERFORMANCE ASSUMING EQUILIBRIUM

           COMPOSITION DURING EXPANSION FROM INFINITE AREA COMBUSTOR

 Pinj =   100.0 PSIA
 CASE = LOX_/_LH2      

             REACTANT                    WT FRACTION      ENERGY      TEMP
                                          (SEE NOTE)      CAL/MOL       K  
 FUEL        H2(L)                        1.0000000     -2154.000     20.270
 OXIDANT     O2(L)                        1.0000000     -3102.000     90.180

 REACTANT DENSITY=  0.1885 G/CC

 O/F=    1.00000  %FUEL= 50.000000  R,EQ.RATIO= 7.936683  PHI,EQ.RATIO= 7.936683

                 CHAMBER   THROAT     EXIT
 Pinf/P            1.0000   1.8745   610.37
 P, ATM            6.8046   3.6300  0.01115
 T, K              977.48   826.57   250.24
 RHO, G/CC       3.4203-4 2.1578-4 2.3317-6
 H, CAL/G         -582.73  -861.52 -2074.85
 U, CAL/G        -1064.52 -1268.93 -2190.64
 G, CAL/G        -9910.54 -8749.27 -4462.79
 S, CAL/(G)(K)     9.5427   9.5427   9.5427

 M, (1/n)           4.032    4.032    4.295
 MW, MOL WT         4.032    4.032    4.032
 (dLV/dLP)t      -1.00000 -1.00000 -1.07412
 (dLV/dLT)p        1.0000   1.0000   2.8216
 Cp, CAL/(G)(K)    1.8668   1.8299  22.4386
 GAMMAs            1.3587   1.3686   1.0990
 SON VEL,M/SEC     1655.0   1527.4    729.7
 MACH NUMBER        0.000    1.000    4.843

 PERFORMANCE PARAMETERS

 Ae/At                      1.0000   40.000
 CSTAR, FT/SEC              6863.5   6863.5
 CF                         0.7301   1.6891
 Ivac,LB-SEC/LB              269.6    374.3
 Isp, LB-SEC/LB              155.8    360.3


 MOLE FRACTIONS

 *H2              0.87400  0.87400  0.87400
 H2O              0.12600  0.12600  0.06478
 H2O(cr)          0.00000  0.00000  0.06122

  * THERMODYNAMIC PROPERTIES FITTED TO 20000.K

    PRODUCTS WHICH WERE CONSIDERED BUT WHOSE MOLE FRACTIONS
    WERE LESS THAN 5.000000E-06 FOR ALL ASSIGNED CONDITIONS

 *H              HO2             H2O2            *O              *OH            
 *O2             O3              H2O(L)         

 NOTE. WEIGHT FRACTION OF FUEL IN TOTAL FUELS AND OF OXIDANT IN TOTAL OXIDANTS



  
  
  
  
