
 *******************************************************************************

         NASA-GLENN CHEMICAL EQUILIBRIUM PROGRAM CEA, OCTOBER 18, 2002
                   BY  BONNIE MCBRIDE AND SANFORD GORDON
      REFS: NASA RP-1311, PART I, 1994 AND NASA RP-1311, PART II, 1996

 *******************************************************************************



 reac
  fuel H2(L)  H 2
  h,cal=-2154.0      t(k)=20.27       wt%=100.
  oxid O2(L)  O 2
  h,cal=-3102.      t(k)=90.18       wt%=100.
  
 prob case=RocketCEA,
  rocket equilibrium   p,psia=1000.000000,  supar=40.000000,
  fac  ac/at=2.500000,
  o/f=6.000000,
  
  
 output calories  transport
 end

 OPTIONS: TP=F  HP=F  SP=F  TV=F  UV=F  SV=F  DETN=F  SHOCK=F  REFL=F  INCD=F
 RKT=T  FROZ=F  EQL=T  IONS=F  SIUNIT=F  DEBUGF=F  SHKDBG=F  DETDBG=F  TRNSPT=T

 TRACE= 0.00E+00  S/R= 0.000000E+00  H/R= 0.000000E+00  U/R= 0.000000E+00

 Pc,BAR =    68.947304

 Pc/P =

 SUBSONIC AREA RATIOS =

 SUPERSONIC AREA RATIOS =    40.0000

 NFZ=  1  Mdot/Ac= 0.000000E+00  Ac/At= 2.500000E+00

    REACTANT          WT.FRAC   (ENERGY/R),K   TEMP,K  DENSITY
        EXPLODED FORMULA
 F: H2(L)            1.000000  -0.108393E+04    20.27  0.8740
          H  2.00000
 O: O2(L)            1.000000  -0.156098E+04    90.18  1.0036
          O  2.00000

  SPECIES BEING CONSIDERED IN THIS SYSTEM
 (CONDENSED PHASE MAY HAVE NAME LISTED SEVERAL TIMES)
  LAST thermo.inp UPDATE:    9/09/04

  g 6/97  *H               g 4/02  HO2              tpis78  *H2            
  g 8/89  H2O              g 6/99  H2O2             g 5/97  *O             
  g 4/02  *OH              tpis89  *O2              g 8/01  O3             
  g11/99  H2O(cr)          g 8/01  H2O(L)           g 8/01  H2O(L)         

 SPECIES WITH TRANSPORT PROPERTIES

        PURE SPECIES

  H                 H2                H2O               O               
  OH                O2              

     BINARY INTERACTIONS

     H               H2              
     H               O               
     H2              H2O             
     H2              O2              
     H2O             O2              
     O               O2              


 O/F =   6.000000

                       EFFECTIVE FUEL     EFFECTIVE OXIDANT        MIXTURE
 ENTHALPY                  h(2)/R              h(1)/R               h0/R
 (KG-MOL)(K)/KG       -0.53769505E+03     -0.48782395E+02     -0.11862706E+03

 KG-FORM.WT./KG             bi(2)               bi(1)               b0i
  *H                   0.99212255E+00      0.00000000E+00      0.14173179E+00
  *O                   0.00000000E+00      0.62502344E-01      0.53573438E-01

 POINT ITN      T            H           O 
   1    9    3483.350      -9.273     -16.160
   2    2    3477.640      -9.295     -16.173
 Pinf/Pt = 1.734699
   3    4    3286.479      -9.473     -16.521
 Pinf/Pt = 1.734896
   3    1    3286.440      -9.473     -16.522
   4    2    3467.552      -9.305     -16.190
   4    2    3465.647      -9.306     -16.193
   4    2    3465.444      -9.307     -16.193
   4    1    3465.442      -9.307     -16.193
   2    2    3479.772      -9.287     -16.168
 Pinf/Pt = 1.734777
   3    4    3288.197      -9.465     -16.517
 Pinf/Pt = 1.734986
   3    1    3288.155      -9.465     -16.517
   4    2    3469.663      -9.296     -16.185
   4    2    3467.753      -9.298     -16.188
   4    2    3467.550      -9.298     -16.189
   4    1    3467.548      -9.298     -16.189
 END OF CHAMBER ITERATIONS

 WARNING!!  ASSIGNED pip =   0.00000 IS NOT PERMITTED
 TO BE LESS THAN  Pinj/Pc =  1.06918. POINT OMITTED (ROCKET)
   4    5    1393.236     -10.951     -27.358
   4    3    1441.621     -10.912     -26.689





              THEORETICAL ROCKET PERFORMANCE ASSUMING EQUILIBRIUM

            COMPOSITION DURING EXPANSION FROM FINITE AREA COMBUSTOR

 Pinj =  1000.0 PSIA
 Ac/At =  2.5000      Pinj/Pinf =  1.032901
 CASE = RocketCEA,     

             REACTANT                    WT FRACTION      ENERGY      TEMP
                                          (SEE NOTE)      CAL/MOL       K  
 FUEL        H2(L)                        1.0000000     -2154.000     20.270
 OXIDANT     O2(L)                        1.0000000     -3102.000     90.180

 REACTANT DENSITY=  0.9828 G/CC

 O/F=    6.00000  %FUEL= 14.285714  R,EQ.RATIO= 1.322780  PHI,EQ.RATIO= 1.322780

                 INJECTOR  COMB END  THROAT     EXIT
 Pinj/P            1.0000   1.0692   1.7921   473.77
 P, ATM            68.046   63.643   37.970  0.14363
 T, K             3483.35  3467.55  3288.16  1441.62
 RHO, G/CC       3.2038-3 3.0113-3 1.9141-3 1.7133-5
 H, CAL/G         -235.74  -253.44  -509.60 -2372.05
 U, CAL/G         -750.09  -765.27  -990.00 -2575.07
 G, CAL/G        -15090.3 -15057.2 -14547.5 -8526.66
 S, CAL/(G)(K)     4.2644   4.2692   4.2692   4.2692

 M, (1/n)          13.458   13.463   13.602   14.111
 (dLV/dLP)t      -1.02525 -1.02508 -1.01972 -1.00000
 (dLV/dLT)p        1.4496   1.4485   1.3717   1.0001
 Cp, CAL/(G)(K)    2.0951   2.0962   1.9277   0.7309
 GAMMAs            1.1401   1.1398   1.1401   1.2387
 SON VEL,M/SEC     1566.3   1562.3   1513.8   1025.8
 MACH NUMBER        0.000    0.246    1.000    4.122

 TRANSPORT PROPERTIES (GASES ONLY)
   CONDUCTIVITY IN UNITS OF MILLICALORIES/(CM)(K)(SEC)

 VISC,MILLIPOISE   1.0588   1.0552   1.0146  0.52766

  WITH EQUILIBRIUM REACTIONS

 Cp, CAL/(G)(K)    2.0951   2.0962   1.9277   0.7309
 CONDUCTIVITY      4.1444   4.1371   3.6495   0.5415
 PRANDTL NUMBER    0.5352   0.5347   0.5359   0.7123

  WITH FROZEN REACTIONS

 Cp, CAL/(G)(K)    0.9029   0.9023   0.8949   0.7303
 CONDUCTIVITY      1.3519   1.3461   1.2752   0.5401
 PRANDTL NUMBER    0.7071   0.7073   0.7120   0.7135

 PERFORMANCE PARAMETERS

 Ae/At                      2.5000   1.0000   40.000
 CSTAR, FT/SEC              7558.0   7558.0   7558.0
 CF                         0.1671   0.6571   1.8354
 Ivac,LB-SEC/LB              606.6    289.8    451.6
 Isp, LB-SEC/LB               39.2    154.4    431.1


 MOLE FRACTIONS

 *H               0.03417  0.03406  0.02835  0.00001
 HO2              0.00003  0.00003  0.00002  0.00000
 *H2              0.24832  0.24814  0.24539  0.24401
 H2O              0.66590  0.66670  0.68697  0.75598
 H2O2             0.00001  0.00001  0.00001  0.00000
 *O               0.00334  0.00330  0.00220  0.00000
 *OH              0.04478  0.04434  0.03468  0.00000
 *O2              0.00345  0.00342  0.00240  0.00000

  * THERMODYNAMIC PROPERTIES FITTED TO 20000.K

    PRODUCTS WHICH WERE CONSIDERED BUT WHOSE MOLE FRACTIONS
    WERE LESS THAN 5.000000E-06 FOR ALL ASSIGNED CONDITIONS

 O3              H2O(cr)         H2O(L)         

 NOTE. WEIGHT FRACTION OF FUEL IN TOTAL FUELS AND OF OXIDANT IN TOTAL OXIDANTS



  
  
  
