
 *******************************************************************************

         NASA-GLENN CHEMICAL EQUILIBRIUM PROGRAM CEA2, MAY 21, 2004
                   BY  BONNIE MCBRIDE AND SANFORD GORDON
      REFS: NASA RP-1311, PART I, 1994 AND NASA RP-1311, PART II, 1996

 *******************************************************************************



 !
 !              SIX-CHARACTER REFERENCE-DATE CODES
 !
 !
 !  Letters         Reference                         Numbers
 !  __________________________________________________________________
 !
 !    g      Glenn Research Center              Month/year calculated
 !
 !    j      NIST-JANAF Thermochemical          Month/year of table
 !           Tables. Chase,1998
 !
 !    tpis   Thermodynamic Properties of        Year of volume
 !           Individual Substances. Gurvich,
 !           1978,1979,1982,1989,1991,1996
 !
 !    n      TRC Thermodynamic Tables, NIST     Month/year of table
 !
 !    bar    Barin:Thermochemical Data of       Year of volume
 !           Pure Substances. Barin,1989
 !
 !    coda   CODATA Key Values for              Year of volume
 !           Thermodynamics. Cox,1989
 !
 !    srd    Standard Reference Data            Year of J.Phys.Chem.Ref.
 !                                              Data journal
 !
 !
 !
 !                   ORDER OF SPECIES
 !
 !
 !         1)  Gaseous products/reactants
 !
 !         2)  Condensed products/reactants
 !
 !         3)  Gaseous/condensed reactants only (starts with "Air")
 !
 !
 !
 thermo
 e-               g12/98   0.000000E+00     Ref-Species. Chase,1998 3/82.                                 
 Ag               g10/97   0.284900E+06     Hf:Cox,1989. Moore,1971. Gordon,1999.                         
 Ag+              g10/97   0.102209E+07     Moore,1971. Gordon,1999.                                      
 Ag-              g10/97   0.153079E+06     Hotop,1985. Gordon,1999.                                      
 AL               g12/97   0.330000E+06     Hf:Cox,1989. Kaufman,1991b. Gordon,1999.                      
 AL+              g 1/98   0.913015E+06     Kaufman,1991b. Moore,1971. Gordon,1999.                       
 AL-              g 3/97   0.281090E+06     Chase,1998 p65 6/83. EA:Hotop,1985. Gordon,1999.              
 ALBr             tpis96   0.143250E+05     Gurvich,1996a pt1 p184 pt2 p148.                              
 ALBr2            tpis96  -0.140662E+06     Gurvich,1996a pt1 p186 pt2 p149.                              
 ALBr3            tpis96  -0.410477E+06     Gurvich,1996a pt1 p188 pt2 p151.                              
 ALC              tpis96   0.682284E+06     Gurvich,1996a pt1 p205 pt2 p165.                              
 ALC2             tpis96   0.675616E+06     Gurvich,1996a pt1 p206 pt2 p166.                              
 ALCL             tpis96  -0.510074E+05     Gurvich,1996a pt1 p168 pt2 p131.                              
 ALCL+            j 6/76   0.861849E+06     Chase,1998 p73.                                               
 ALCL2            tpis96  -0.240874E+06     Gurvich,1996a pt1 p171 pt2 p132.                              
 ALCL3            tpis96  -0.584679E+06     Gurvich,1996a pt1 p173 pt2 p134.                              
 ALF              tpis96  -0.264060E+06     Gurvich,1996a pt1 p151 pt2 p116.                              
 ALF+             j 6/76   0.692234E+06     Chase,1998 p92.                                               
 ALFCL            tpis96  -0.436410E+06     Gurvich,1996a pt1 p182 pt2 p144.                              
 ALFCL2           tpis96  -0.791395E+06     Gurvich,1996a pt1 p183 pt2 p146.                              
 ALF2             tpis96  -0.631764E+06     Gurvich,1996a pt1 p153 pt2 p117.                              
 ALF2-            tpis96  -0.853231E+06     Gurvich,1996a pt1 p154 pt2 p118.                              
 ALF2CL           tpis96  -0.999128E+06     Gurvich,1996a pt1 p182 pt2 p145.                              
 ALF3             tpis96  -0.120928E+07     Gurvich,1996a pt1 p157 pt2 p120.                              
 ALF4-            tpis96  -0.195160E+07     Gurvich,1996a pt1 p159 pt2 p121.                              
 ALH              tpis96   0.249251E+06     Gurvich,1996a pt1 p139 pt2 p106.                              
 ALHCL            tpis96   0.105220E+05     Gurvich,1996a pt1 p178 pt2 p138.                              
 ALHCL2           tpis96  -0.351279E+06     Gurvich,1996a pt1 p179 pt2 p140.                              
 ALHF             tpis96  -0.182614E+06     Gurvich,1996a pt1 p164 pt2 p125.                              
 ALHFCL           tpis96  -0.555245E+06     Gurvich,1996a pt1 p184 pt2 p147.                              
 ALHF2            tpis96  -0.765299E+06     Gurvich,1996a pt1 p166 pt2 p127.                              
 ALH2             tpis96   0.276775E+06     Gurvich,1996a pt1 p142 pt2 p107.                              
 ALH2CL           tpis96  -0.106345E+06     Gurvich,1996a pt1 p179 pt2 p139.                              
 ALH2F            tpis96  -0.316656E+06     Gurvich,1996a pt1 p165 pt2 p126.                              
 ALH3             tpis96   0.128896E+06     Gurvich,1996a pt1 p145 pt2 p109.                              
 ALI              tpis96   0.673950E+05     Gurvich,1996a pt1 p191 pt2 p153.                              
 ALI2             tpis96  -0.338130E+05     Gurvich,1996a pt1 p193 pt2 p154.                              
 ALI3             tpis96  -0.191330E+06     Gurvich,1996a pt1 p195 pt2 p156.                              
 ALN              tpis96   0.438829E+06     Gurvich,1996a pt1 p204 pt2 p164.                              
 ALO              tpis96   0.673190E+05     Gurvich,1996a pt1 p122 pt2 p96.                               
 ALO+             j12/79   0.992993E+06     Chase,1998 p133.                                              
 ALO-             g11/97  -0.272922E+06     Gurvich,1996a pt1 p125 pt2 p98.                               
 ALOCL            tpis96  -0.301565E+06     Gurvich,1996a pt1 p176 pt2 p136.                              
 ALOCL2           tpis96  -0.402309E+06     Gurvich,1996a pt1 p178 pt2 p137.                              
 ALOF             tpis96  -0.572290E+06     Gurvich,1996a pt1 p163 pt2 p123.                              
 ALOF2            tpis96  -0.773650E+06     Gurvich,1996a pt1 p164 pt2 p124.                              
 ALOF2-           g 2/01  -0.972290E+06     Chase,1998 p98 6/76.                                          
 ALOH             tpis96  -0.192762E+06     Gurvich,1996a pt1 p146 pt2 p110.                              
 ALOHCL           tpis96  -0.373786E+06     Gurvich,1996a pt1 p180 pt2 p141.                              
 ALOHCL2          tpis96  -0.725145E+06     Gurvich,1996a pt1 p181 pt2 p143.                              
 ALOHF            tpis96  -0.574212E+06     Gurvich,1996a pt1 p166 pt2 p128.                              
 ALOHF2           tpis96  -0.114151E+07     Gurvich,1996a pt1 p168 pt2 p130.                              
 ALO2             tpis96  -0.386579E+05     Gurvich,1996a pt1 p126 pt2 p99.                               
 ALO2-            tpis96  -0.452572E+06     Gurvich,1996a pt1 p128 pt2 p100.                              
 AL(OH)2          tpis96  -0.507661E+06     Gurvich,1996a pt1 p149 pt2 p113.                              
 AL(OH)2CL        tpis96  -0.859057E+06     Gurvich,1996a pt1 p181 pt2 p142.                              
 AL(OH)2F         tpis96  -0.106963E+07     Gurvich,1996a pt1 p167 pt2 p129.                              
 AL(OH)3          tpis96  -0.101267E+07     Gurvich,1996a pt1 p150 pt2 p115.                              
 ALS              tpis96   0.232682E+06     Gurvich,1996a pt1 p197 pt2 p158.                              
 ALS2             tpis96   0.248535E+06     Gurvich,1996a pt1 p198 pt2 p159.                              
 AL2              tpis96   0.501302E+06     Gurvich,1996a pt1 p118 pt2 p95.                               
 AL2Br6           tpis96  -0.942423E+06     Gurvich,1996a pt1 p190 pt2 p152.                              
 AL2C2            tpis96   0.544978E+06     Gurvich,1996a pt1 p206 pt2 p167.                              
 AL2CL6           tpis96  -0.129688E+07     Gurvich,1996a pt1 p175 pt2 p135.                              
 AL2F6            tpis96  -0.263249E+07     Gurvich,1996a pt1 p160 pt2 p122.                              
 AL2I6            tpis96  -0.487747E+06     Gurvich,1996a pt1 p196 pt2 p157.                              
 AL2O             tpis96  -0.148611E+06     Gurvich,1996a pt1 p129 pt2 p101.                              
 AL2O+            g 1/01   0.648970E+06     Chase,1998 p151 12/79.                                        
 AL2O2            tpis96  -0.403096E+06     Gurvich,1996a pt1 p131 pt2 p102.                              
 AL2O2+           g 2/01   0.557439E+06     Chase,1998 p153 12/79.                                        
 AL2O3            tpis96  -0.546891E+06     Gurvich,1996a pt1 p137 pt2 p105.                              
 AL2S             tpis96   0.220679E+06     Gurvich,1996a pt1 p199 pt2 p160.                              
 AL2S2            tpis96   0.135287E+06     Gurvich,1996a pt1 p200 pt2 p161.                              
 Ar               g 3/98   0.000000E+00     Ref-Elm. Moore,1971. Gordon,1999.                             
 Ar+              g 1/99   0.152678E+07     Moore,1971. IP:Moore,1970a. Gordon,1999.                      
 B                g 9/98   0.575599E+06     Martin,J.M.L.,1998. Odintzova,1979. Gordon,1999.              
 B+               g 9/98   0.138232E+07     Moore,1971. IP:Moore,1970a. Gordon,1999.                      
 B-               g 9/98   0.542631E+06     Hotop,1985. Gordon,1999.                                      
 BBr              g 9/98   0.240952E+06     Gurvich,1996a pt1 p91 pt2 p70.                                
 BBr2             g 9/98   0.978286E+05     Gurvich,1996a pt1 p92 pt2 p71.                                
 BBr3             tpis96  -0.205300E+06     Gurvich,1996a pt1 p93 pt2 p72.                                
 BC               g 9/98   0.838162E+06     Gurvich,1996a pt1 p108 pt2 p86.                               
 BC2              g 9/98   0.801259E+06     Gurvich,1996a pt1 p109 pt2 p87.                               
 BCL              g 9/98   0.183173E+06     Gurvich,1996a pt1 p73 pt2 p51.                                
 BCL+             j 6/68   0.123428E+07     Chase,1998 p198.                                              
 BCLOH            g 9/98  -0.234005E+06     Gurvich,1996a pt1 p83 pt2 p61.                                
 BCL(OH)2         tpis96  -0.805388E+06     Gurvich,1996a pt1 p85 pt2 p62.                                
 BCL2             tpis96  -0.608815E+05     Gurvich,1996a pt1 p74 pt2 p52.                                
 BCL2+            g 1/01   0.672315E+06     Chase,1998 p203 12/79.                                        
 BCL2OH           tpis96  -0.604917E+06     Gurvich,1996a pt1 p86 pt2 p63.                                
 BCL3             tpis96  -0.404500E+06     Gurvich,1996a pt1 p76 pt2 p53.                                
 BF               g10/97  -0.106932E+06     Gurvich,1996a pt1 p56 pt2 p36.                                
 BFCL             tpis96  -0.279184E+06     Gurvich,1996a pt1 p86 pt2 p64.                                
 BFCL2            tpis96  -0.643000E+06     Gurvich,1996a pt1 p88 pt2 p66.                                
 BFOH             g 9/98  -0.451632E+06     Gurvich,1996a pt1 p71 pt2 p48.                                
 BF(OH)2          tpis96  -0.104989E+07     Gurvich,1996a pt1 p71 pt2 p49.                                
 BF2              tpis96  -0.499427E+06     Gurvich,1996a pt1 p58 pt2 p37.                                
 BF2+             j12/70   0.322586E+06     Chase,1998 p211.                                              
 BF2-             tpis96  -0.733803E+06     Gurvich,1996a pt1 p60 pt2 p38.                                
 BF2CL            tpis96  -0.888000E+06     Gurvich,1996a pt1 p87 pt2 p65.                                
 BF2OH            tpis96  -0.109222E+07     Gurvich,1996a pt1 p72 pt2 p50.                                
 BF3              tpis96  -0.113600E+07     Gurvich,1996a pt1 p62 pt2 p39.                                
 BF4-             tpis96  -0.176127E+07     Gurvich,1996a pt1 p63 pt2 p40.                                
 BH               g12/99   0.448727E+06     Bauschlicher,1990. Gurvich,1996a pt1 p28 pt2 p19.             
 BHCL             g 9/98   0.141418E+06     Gurvich,1996a pt1 p81 pt2 p58.                                
 BHCL2            tpis96  -0.251884E+06     Gurvich,1996a pt1 p82 pt2 p60.                                
 BHF              g 9/98  -0.760123E+05     Gurvich,1996a pt1 p68 pt2 p45.                                
 BHFCL            tpis96  -0.483037E+06     Gurvich,1996a pt1 p90 pt2 p69.                                
 BHF2             tpis96  -0.739614E+06     Gurvich,1996a pt1 p69 pt2 p47.                                
 BH2              g 2/00   0.328909E+06     Jacox,1994.  Kolbuszewski,1996. Gurvich,1996a p32.            
 BH2CL            tpis96  -0.808458E+05     Gurvich,1996a pt1 p82 pt2 p59.                                
 BH2F             tpis96  -0.323957E+06     Gurvich,1996a pt1 p69 pt2 p46.                                
 BH3              g 1/00   0.104747E+06     Allendorf,1997. Jacox,1998 p212. Martin,J.M.L.,1992.          
 BH4              g 5/00   0.255210E+06     Radical. Saxon,1993. Yu,1998.                                 
 BH5              g 8/00   0.929337E+05     Schreiner,1994.                                               
 BH3NH3           tpis96  -0.115000E+06     Gurvich,1996a pt1 p106 pt2 p84.                               
 BI               g 9/98   0.325988E+06     Gurvich,1996a pt1 p94 pt2 p73.                                
 BI2              g 9/98   0.238096E+06     Gurvich,1996a pt1 p95 pt2 p74.                                
 BI3              tpis96   0.214000E+05     Gurvich,1996a pt1 p96 pt2 p75.                                
 BN               g 9/98   0.574726E+06     Gurvich,1996a pt1 p104 pt2 p83.                               
 BO               g 9/98   0.204064E+05     Gurvich,1996a pt1 p10 pt2 p8.                                 
 BO-              g 9/98  -0.277791E+06     Gurvich,1996a pt1 p13 pt2 p10.                                
 BOCL             tpis96  -0.318537E+06     Gurvich,1996a pt1 p79 pt2 p55.                                
 BOCL2            tpis96  -0.361566E+06     Gurvich,1996a pt1 p79 pt2 p56.                                
 BOF              tpis96  -0.592978E+06     Gurvich,1996a pt1 p65 pt2 p42.                                
 BOF2             tpis96  -0.832768E+06     Gurvich,1996a pt1 p66 pt2 p43.                                
 BOH              tpis96  -0.675658E+04     Gurvich,1996a pt1 p41 pt2 p24.                                
 BO2              g10/97  -0.309122E+06     Gurvich,1996a pt1 p14 pt2 p11.                                
 BO2-             tpis96  -0.714494E+06     Gurvich,1996a pt1 p16 pt2 p13.                                
 B(OH)2           g 9/98  -0.425244E+06     Gurvich,1996a pt1 p46 pt2 p28.                                
 BS               g10/98   0.273519E+06     Gurvich,1996a pt1 p97 pt2 p76.                                
 BS2              g 9/98   0.638675E+05     Gurvich,1996a pt1 p99 pt2 p77.                                
 B2               g 9/98   0.857371E+06     Gurvich,1996a pt1 p8 pt2 p7.                                  
 B2C              g 9/98   0.800433E+06     Gurvich,1996a pt1 p110 pt2 p88.                               
 B2CL4            g10/97  -0.490000E+06     Gurvich,1996a pt1 p77 pt2 p54.                                
 B2F4             g10/97  -0.143800E+07     Gurvich,1996a pt1 p64 pt2 p41.                                
 B2H              g 7/00   0.796262E+06     Adams,1989. Yu,1998.                                          
 B2H2             g 7/00   0.454678E+06     Curtiss,1989a. Yu,1998.                                       
 B2H3             g 6/00   0.351073E+06     Adams,1989. Yu,1998.                                          
 B2H3,db          g 7/00   0.353408E+06     2-Bridges. Adams,1989. Yu,1998.                               
 B2H4             g 8/00   0.211162E+06     1-Bridge. Ruscic,1989b. Curtiss,1989b.                        
 B2H4,db          g 7/00   0.209932E+06     2-Bridges.Ruscic,1989b. Curtiss,1989b.                        
 B2H5             g 5/00   0.254784E+06     1-Bridge. Ruscic,1989a. Trachtman,1990.                       
 B2H5,db          g 5/00   0.275151E+06     2-Bridges. Ruscic,1989a. Trachtman,1990.                      
 B2H6             g 5/00   0.366000E+05     Hf:Gurvich,1996a pt1 p37. Yu,1998. Duncan,1985.               
 B2O              g 9/98   0.192798E+06     Gurvich,1996a pt1 p19 pt2 p14.                                
 B2O2             tpis96  -0.457711E+06     Gurvich,1996a pt1 p19 pt2 p15.                                
 B2O3             tpis96  -0.835382E+06     Gurvich,1996a pt1 p25 pt2 p18.                                
 B2(OH)4          g 9/98  -0.125499E+07     Gurvich,1996a pt1 p52 pt2 p33.                                
 B2S              g 9/98   0.622261E+06     Gurvich,1996a pt1 p100, pt2 p78.                              
 B2S2             tpis96   0.138317E+06     Gurvich,1996a pt1 p100 pt2 p79.                               
 B2S3             tpis96   0.177541E+05     Gurvich,1996a pt1 p102 pt2 p81.                               
 B3H7,C2v         g 8/00   0.176019E+06     C2v symmetry. Stanton,1989b.                                  
 B3H7,Cs          g 8/00   0.159318E+06     Cs symmetry. Stanton,1989b.                                   
 B3H9             g 7/00   0.138909E+06     Hf:McKee,1990. Stanton,1989a.                                 
 B3N3H6           tpis96  -0.512000E+06     Borazole.  Gurvich,1996a pt1 p107 pt2 p85.                    
 B3O3CL3          tpis96  -0.163598E+07     Gurvich,1996a pt1 p80 pt2 p57.                                
 B3O3FCL2         tpis96  -0.188381E+07     Gurvich,1996a pt1 p89 pt2 p68.                                
 B3O3F2CL         tpis96  -0.213282E+07     Gurvich,1996a pt1 p89 pt2 p67.                                
 B3O3F3           tpis96  -0.238270E+07     Gurvich,1996a pt1 p67 pt2 p44.                                
 B4H4             g 8/00   0.326190E+06     Yu,1998. Mach,1994.                                           
 B4H10            g 5/00   0.661000E+05     Wagman,1982 p123. McKee,1990. Dain,1981.                      
 B4H12            g 5/00   0.188236E+06     Shen,1993. Yu,1998.                                           
 B5H9             g 6/00   0.732200E+05     Hf:Chase,1998 p303 3/65.McKee,1990.Beaudet,1988.Yu,1998.      
 Ba               g10/97   0.185000E+06     Gurvich,1996a. Moore,1971. Moore,1970a. Gordon,1999.          
 Ba+              g10/97   0.694050E+06     Moore,1971. Gordon,1999.                                      
 BaBr             tpis96  -0.753247E+05     Gurvich,1996a pt1 p576 pt2 p437.                              
 BaBr2            tpis96  -0.412515E+06     Gurvich,1996a pt1 p579 pt2 p439.                              
 BaCL             tpis96  -0.136291E+06     Gurvich,1996a pt1 p570 pt2 p433.                              
 BaCL+            g12/97   0.348698E+06     Gurvich,1996a pt1 p572 pt2 p434.                              
 BaCL2            tpis96  -0.499301E+06     Gurvich,1996a pt1 p575 pt2 p436.                              
 BaF              tpis96  -0.318994E+06     Gurvich,1996a pt1 p562 pt2 p429.                              
 BaF+             g12/97   0.134063E+06     Gurvich,1996a pt1 p566 pt2 p430.                              
 BaF2             tpis96  -0.812003E+06     Gurvich,1996a pt1 p569 pt2 p432.                              
 BaH              tpis96   0.209535E+06     Gurvich,1996a pt1 p554 pt2 p423.                              
 BaI              tpis96  -0.102377E+05     Gurvich,1996a pt1 p581 pt2 p440.                              
 BaI2             tpis96  -0.288440E+06     Gurvich,1996a pt1 p584 pt2 p442.                              
 BaO              tpis96  -0.117948E+06     Gurvich,1996a pt1 p550 pt2 p419.                              
 BaO+             g11/98   0.511705E+06     Gurvich,1996a pt1 p552 pt2 p421.                              
 BaOH             tpis96  -0.224257E+06     Gurvich,1996a pt1 p557 pt2 p425.                              
 BaOH+            tpis96   0.202019E+06     Gurvich,1996a pt1 p558 pt2 p426.                              
 Ba(OH)2          tpis96  -0.606666E+06     Gurvich,1996a pt1 p561 pt2 p428.                              
 BaS              tpis96   0.388713E+05     Gurvich,1996a pt1 p585 pt2 p444.                              
 Ba2              tpis96   0.355964E+06     Gurvich,1996a pt1 p545 pt2 p417.                              
 Be               g11/97   0.324000E+06     Hf:Cox,1989. Kramida,1997. Gordon,1999.                       
 Be+              g 1/98   0.122970E+07     Moore,1971. Moore,1970a. Gordon,1999.                         
 Be++             g 3/97   0.299300E+07     Moore,1970a. Gordon,1999.                                     
 BeBr             tpis96   0.132446E+06     Gurvich,1996a pt1 p374 pt2 p300.                              
 BeBr2            tpis96  -0.234062E+06     Gurvich,1996a pt1 p377 pt2 p302.                              
 BeCL             tpis96   0.566931E+05     Gurvich,1996a pt1 p369, pt2 p295.                             
 BeCL2            tpis96  -0.361539E+06     Gurvich,1996a pt1 p373 pt2 p298.                              
 BeF              tpis96  -0.170625E+06     Gurvich,1996a pt1 p363, pt2 p291.                             
 BeF2             tpis96  -0.796588E+06     Gurvich,1996a pt1 p366 pt2 p293.                              
 BeH              tpis96   0.342252E+06     Gurvich,1996a pt1 p356, pt2 p286.                             
 BeH+             g 1/01   0.117822E+07     Chase,1998 p391 9/66.                                         
 BeH2             g 4/01   0.161099E+06     Martin,J.M.L.,1992. Martin,J.M.L.,1997.                       
 BeI              tpis96   0.207454E+06     Gurvich,1996a pt1 p378, pt2 p303.                             
 BeI2             tpis96  -0.647595E+05     Gurvich,1996a pt1 p380 pt2 p305.                              
 BeN              j 6/63   0.427000E+06     Chase,1998 p403.                                              
 BeO              tpis96   0.128940E+06     Gurvich,1996a pt1 p351, pt2 p280.                             
 BeOH             tpis96  -0.997177E+05     Gurvich,1996a pt1 p358 pt2 p288.                              
 BeOH+            j12/75   0.759984E+06     Chase,1998 p393.                                              
 Be(OH)2          tpis96  -0.638864E+06     Gurvich,1996a pt1 p360 pt2 p290.                              
 BeS              tpis96   0.247095E+06     Gurvich,1996a pt1 p381 pt2 p307.                              
 Be2              tpis96   0.637543E+06     Gurvich,1996a pt1 p346 pt2 p277.                              
 Be2CL4           tpis96  -0.819605E+06     Gurvich,1996a pt1 p374 pt2 p299.                              
 Be2F4            tpis96  -0.173170E+07     Gurvich,1996a pt1 p368 pt2 p294.                              
 Be2O             tpis96  -0.370338E+05     Gurvich,1996a pt1 p353 pt2 p282.                              
 Be2OF2           j 6/66  -0.120457E+07     Chase,1998 p417.                                              
 Be2O2            tpis96  -0.411635E+06     Gurvich,1996a pt1 p354 pt2 p283.                              
 Be3O3            tpis96  -0.102372E+07     Gurvich,1996a pt1 p355 pt2 p284.                              
 Be4O4            tpis96  -0.164929E+07     Gurvich,1996a pt1 p356 pt2 p285.                              
 Br               g 3/97   0.111870E+06     Hf:Cox,1989. Moore,1971. Moore,1970a. Gordon,1999.            
 Br+              g10/97   0.125793E+07     Moore,1971. Moore,1970a. Gordon,1999.                         
 Br-              g10/97  -0.219000E+06     Hotop,1985. Gordon,1999.                                      
 BrCL             tpis89   0.147891E+05     Gurvich,1989 pt1 p213 pt2 p112.                               
 BrF              tpis89  -0.588514E+05     Gurvich,1989 pt1 p208 pt2 p109.                               
 BrF3             tpis89  -0.255600E+06     Gurvich,1989 pt1 p211 pt2 p110.                               
 BrF5             tpis89  -0.428800E+06     Gurvich,1989 pt1 p212 pt2 p111.                               
 BrO              j 3/96   0.125800E+06     Chase,1996a.                                                  
 OBrO             j 3/96   0.151955E+06     Chase,1996a.                                                  
 BrOO             j 3/96   0.108000E+06     Chase,1996a.                                                  
 BrO3             j 3/96   0.220821E+06     Chase,1996a.                                                  
 Br2              tpis89   0.309100E+05     Gurvich,1989 pt1 p200 pt2 p104.                               
 BrBrO            j 3/96   0.168000E+06     Chase,1996a.                                                  
 BrOBr            j 3/96   0.107639E+06     Chase,1996a.                                                  
 C                g 7/97   0.716680E+06     Hf:Douglas,1955. Moore,1970b. Gordon,1999.                    
 C+               g 6/98   0.180944E+07     Moore,1970b. Gordon,1999.                                     
 C-               g 3/98   0.588314E+06     Hotop,1985. Gordon,1999.                                      
 CBr              tpis91   0.490432E+06     Gurvich,1991 pt1 p157 pt2 p137.                               
 CBr2             tpis91   0.336623E+06     Gurvich,1991 pt1 p159 pt2 p138.                               
 CBr3             tpis91   0.235000E+06     Gurvich,1991 pt1 p160 pt2 p139.                               
 CBr4             g 8/99   0.795000E+05     Kudchadker,1975.                                              
 CCL              g 8/99   0.432611E+06     Hf:Kumaran,1997. Gurvich,1991 pt1 p106 pt2 p81.               
 CCLBr3           tpis91   0.650000E+05     Gurvich,1991 pt1 p171 pt2 p152.                               
 CCL2             g 8/99   0.222940E+06     Hf:Kumaran,1997. Jacox,1994. Shin,1990.                       
 CCL2Br2          tpis91   0.100000E+05     Gurvich,1991 pt1 p170 pt2 p151.                               
 CCL3             n12/93   0.711280E+05     Hf:Hudgens,1991. TRC(12/93) tuv7270.                          
 CCL3Br           tpis91  -0.430000E+05     Gurvich,1991 pt1 p169 pt2 p150.                               
 CCL4             tpis91  -0.956000E+05     Gurvich,1991 pt1 p111 pt2 p84.                                
 CF               tpis91   0.242300E+06     Hf:TRC(6/88) w6950. Gurvich,1991 pt1 p74 pt2 p55.             
 CF+              g12/99   0.114556E+07     Chase,1998 p579 12/70.                                        
 CFBr3            tpis91  -0.120000E+06     Gurvich,1991 pt1 p166 pt2 p146.                               
 CFCL             g 9/99   0.258458E+05     Hf:Gurvich,1991 pt1 p135 pt2 p107. Jacox,1994.                
 CFCLBr2          tpis91  -0.175000E+06     Gurvich,1991 pt1 p175 pt2 p158.                               
 CFCL2            tpis91  -0.105000E+06     Gurvich,1991 pt1 p138 pt2 p110.                               
 CFCL2Br          tpis91  -0.235000E+06     Gurvich,1991 pt1 p175 pt2 p157.                               
 CFCL3            g 7/99  -0.283700E+06     Hf:TRC(6/89) w7350. Gurvich,1991 pt1 p140 pt2 p112.           
 CF2              g 9/99  -0.186600E+06     Hf:TRC(6/88) w6950. Jacox,1998.                               
 CF2+             g 9/99   0.949341E+06     Chase,1998 p583 12/70. Jacox,1994.                            
 CF2Br2           tpis91  -0.380000E+06     Gurvich,1991 pt1 p166 pt2 p145.                               
 CF2CL            tpis91  -0.275000E+06     Gurvich,1991 pt1 p136 pt2 p108.                               
 CF2CLBr          tpis91  -0.435000E+06     Gurvich,1991 pt1 p173 pt2 p156.                               
 CF2CL2           g 7/99  -0.490800E+06     Hf:TRC(6/89) w7350.Gurvich,1991 pt1 p139 pt2 p111.            
 CF3              g 8/99  -0.467400E+06     Hf:TRC(6/88) w6950. Jacox,1998.                               
 CF3+             g 9/99   0.423617E+06     Chase,1998 p583 12/71. Jacox,1998.                            
 CF3Br            tpis91  -0.648800E+06     Gurvich,1991 pt1 p165 pt2 p144.                               
 CF3CL            g 7/99  -0.704200E+06     Hf:TRC(6/89) w7350. Gurvich,1991 pt1 p137 pt2 p109.           
 CF4              g 7/99  -0.933120E+06     Hf:TRC(12/94) w6520. Gurvich,1991 pt1 p79 pt2 p58.            
 CH               tpis79   0.597371E+06     Gurvich,1979 pt1 p37 pt2 p39.                                 
 CH+              tpis91   0.163057E+07     Gurvich,1991 pt1 p38 pt2 p32.                                 
 CHBr3            g 8/99   0.167400E+05     Kudchadker,1975.                                              
 CHCL             g 9/99   0.297100E+06     Hf:TRC(12/93) w7270.Gurvich,1991. Jacox,1998.                 
 CHCLBr2          tpis91   0.100000E+05     Gurvich,1991 pt1 p173 pt2 p155.                               
 CHCL2            n12/93   0.958000E+05     TRC(12/93) tuvw7270.                                          
 CHCL2Br          tpis91  -0.450000E+05     Gurvich,1991 pt1 p172 pt2 p154.                               
 CHCL3            g 7/99  -0.102700E+06     Gurvich,1991 pt1 p127 pt2 p98.                                
 CHF              g 8/99   0.108800E+06     Hf:TRC(6/88) w695. Jacox,1998.                                
 CHFBr2           tpis91  -0.175000E+06     Gurvich,1991 pt1 p168 pt2 p149.                               
 CHFCL            tpis91  -0.831447E+05     Gurvich,1991 pt1 p147 pt2 p121.                               
 CHFCLBr          tpis91  -0.230000E+06     Gurvich,1991 pt1 p176 pt2 p159.                               
 CHFCL2           g 7/99  -0.284900E+06     Hf:TRC(6/89) w7350. Gurvich,1991 pt1 p149 pt2 p124.           
 CHF2             n 6/88  -0.238900E+06     TRC(6/88) tuvw6950.                                           
 CHF2Br           tpis91  -0.422000E+06     Gurvich,1991 pt1 p168 pt2 p148.                               
 CHF2CL           g 7/99  -0.482800E+06     Hf:TRC(6/89) w7350. Gurvich,1991 pt1 p148 pt2 p123.           
 CHF3             g 8/99  -0.693300E+06     Hf:TRC(12/89) w6880. Gurvich,1991 pt1 p97 pt2 p72.            
 CHI3             g 8/99   0.210874E+06     Kudchadker,1975.                                              
 CH2              g 4/02   0.390365E+06     D0(H2C-H): Ruscic,1999. Bunker,1983. Jacox,1998.              
 CH2Br2           g 8/99  -0.147700E+05     Kudchadker, 1975.                                             
 CH2CL            g12/99   0.119200E+06     Hf:TRC(12/93) w7270. Gurvich,1991 pt1 p122. Jacox,1998.       
 CH2CLBr          tpis91  -0.450000E+05     Gurvich,1991 pt1 p171 pt2 p153.                               
 CH2CL2           tpis91  -0.950000E+05     Gurvich,1991 pt1 p125 pt2 p97.                                
 CH2F             n 6/88  -0.318000E+05     TRC(6/88) tuvw6950.                                           
 CH2FBr           tpis91  -0.215000E+06     Gurvich,1991 pt1 p167 pt2 p147.                               
 CH2FCL           g 7/99  -0.265700E+06     Hf:TRC(6/89) w7350. Gurvich,1991 pt1 p147 pt2 p122.           
 CH2F2            g 8/99  -0.452300E+06     Hf:TRC(12/89) w6880. Gurvich,1991 pt1 p96 pt2 p71.            
 CH2I2            g 8/99   0.117570E+06     Kudchadker,1975. Kudchadker,1976.                             
 CH3              g 4/02   0.146658E+06     D0(H3C-H): Ruscic,1999. Jacox,1998.                           
 CH3Br            g 8/99  -0.377400E+05     Kudchadker,1975.                                              
 CH3CL            tpis91  -0.818700E+05     Gurvich,1991 pt1 p122 pt2 p95.                                
 CH3F             g 8/99  -0.237700E+06     Hf:TRC(12/89) w6880. Gurvich,1991 pt1 p93 pt2 p69.            
 CH3I             g 8/99   0.137654E+05     Kudchadker,1975.                                              
 CH2OH            g11/00  -0.178000E+05     Hydroxymethyl Radical. Johnson,1996.                          
 CH2OH+           g11/00   0.716400E+06     Hydroxymethyl Cation. Johnson,1996.                           
 CH3O             g 7/00   0.130000E+05     Hf:Gurvich,1991 pt1 p67. Jacox,1998 p271.                     
 CH4              g 8/99  -0.746000E+05     Gurvich,1991 pt1 p44 pt2 p36.                                 
 CH3OH            g 7/00  -0.200940E+06     Hf:TRC(6/87) w5030. Chen,1977.                                
 CH3OOH           srd 01  -0.139000E+06     Methyl Hydroperoxide, CH3-O-O-H. Dorofeeva,2001.              
 CI               tpis91   0.570201E+06     Gurvich,1991 pt1 p176 pt2 p160.                               
 CI2              tpis91   0.468394E+06     Gurvich,1991 pt1 p178 pt2 p161.                               
 CI3              g 9/99   0.405984E+06     Gurvich,1991 pt1 p178 pt2 p162.                               
 CI4              g 8/99   0.267943E+06     Kudchadker,1975. Kudchadker,1976.                             
 CN               g 8/99   0.438684E+06     Hf: Huang,1992. Gurvich,1979 pt1 p212 pt2 p210.               
 CN+              tpis91   0.179889E+07     Gurvich,1991 pt1 p215 pt2 p203.                               
 CN-              tpis91   0.638851E+05     Gurvich,1991 pt1 p218 pt2 p205.                               
 CNN              g12/99   0.633484E+06     Gurvich,1991 pt1 p220 pt2 p208. Jacox,1994.                   
 CO               tpis79  -0.110535E+06     Gurvich,1979 pt1 p25 pt2 p29.                                 
 CO+              tpis91   0.124779E+07     Gurvich,1991 pt1 p26 pt2 p22.                                 
 COCL             tpis91  -0.160000E+05     Gurvich,1991 pt1 p118 pt2 p91.                                
 COCL2            tpis91  -0.219500E+06     Gurvich,1991 pt1 p119 pt2 p92.                                
 COFCL            tpis91  -0.429493E+06     Gurvich,1991 pt1 p146 pt2 p120.                               
 COF2             tpis91  -0.640000E+06     Gurvich,1991 pt1 p89 pt2 p66.                                 
 COHCL            tpis91  -0.164212E+06     Gurvich,1991 pt1 p134 pt2 p106.                               
 COHF             tpis91  -0.374590E+06     Gurvich,1991 pt1 p106 pt2 p80.                                
 COS              g 5/01  -0.141700E+06     Gurvich,1991 pt1 p211 pt2 p200.                               
 CO2              g 9/99  -0.393510E+06     Gurvich,1991 pt1 p27 pt2 p24.                                 
 CO2+             g 9/99   0.944688E+06     Gurvich,1991 pt1 p30 pt2 p26.                                 
 COOH             tpis91  -0.213000E+06     Gurvich,1991 pt1 p60 pt2 p46.                                 
 CP               tpis91   0.520162E+06     Gurvich,1991 pt1 p231 pt2 p219.                               
 CS               g11/01   0.278550E+06     Hf:Prinslow,1991. Gurvich,1991 pt1 p206 pt2 p198.             
 CS2              g 6/95   0.116700E+06     Gurvich,1991 pt1 p209 pt2 p199.                               
 C2               tpis91   0.830457E+06     Gurvich,1991 pt1 p9 pt2 p8.                                   
 C2+              tpis91   0.200478E+07     Gurvich,1991 pt1 p14 pt2 p10.                                 
 C2-              tpis91   0.480767E+06     Gurvich,1991 pt1 p15 pt2 p12.                                 
 C2CL             tpis91   0.534083E+06     Gurvich,1991 pt1 p112 pt2 p85.                                
 C2CL2            g 5/02   0.226600E+06     Hf:Manion,2002. Gurvich,1991 pt1 p114 pt2 p86.                
 C2CL3            tpis91   0.190272E+06     Gurvich,1991 pt1 p114 pt2 p87.                                
 C2CL4            g 5/02  -0.242000E+05     Hf:Manion,2002. Gurvich,1991 pt1 p115 pt2 p88.                
 C2CL6            g 5/02  -0.148200E+06     Hf:Manion,2002. Gurvich,1991 pt1 p117 pt2 p90.                
 C2F              tpis91   0.353847E+06     Gurvich,1991 pt1 p81 pt2 p59.                                 
 C2FCL            tpis91   0.337664E+05     Gurvich,1991 pt1 p141 pt2 p113.                               
 C2FCL3           tpis91  -0.166000E+06     Gurvich,1991 pt1 p145 pt2 p119.                               
 C2F2             tpis91  -0.144666E+06     Gurvich,1991 pt1 p82 pt2 p60.                                 
 C2F2CL2          tpis91  -0.337837E+06     Gurvich,1991 pt1 p143 pt2 p115. Eql mixture of isomers.       
 C2F3             tpis91  -0.228181E+06     Gurvich,1991 pt1 p83 pt2 p61.                                 
 C2F3CL           tpis91  -0.515200E+06     Gurvich,1991 pt1 p142 pt2 p114.                               
 C2F4             tpis91  -0.659500E+06     Gurvich,1991 pt1 p84 pt2 p62.                                 
 C2F6             g12/99  -0.134400E+07     Gurvich,1991 pt1 p86 pt2 p64.                                 
 C2H              g 6/01   0.566200E+06     Ervin, 1990. Jacox,1998. Peric,1990. Kanamori,1988.           
 C2HCL            g 5/02   0.226400E+06     Hf:Manion,2002. Gurvich,1991 pt1 p129 pt2 p99.                
 C2HCL3           g 5/02  -0.175000E+05     Hf:Manion,2002. Gurvich,1991 pt1 p134 pt2 p105.               
 C2HF             tpis91   0.416923E+05     Gurvich,1991 pt1 p99 pt2 p73.                                 
 C2HFCL2          tpis91  -0.168648E+06     Gurvich,1991 pt1 p155 pt2 p133. Eql mixture of isomers.       
 C2HF2CL          tpis91  -0.333654E+06     Gurvich,1991 pt1 p153 pt2 p129. 1,1 cis & trans in equil.     
 C2HF3            tpis91  -0.491000E+06     Gurvich,1991 pt1 p105 pt2 p79.                                
 C2H2,acetylene   g 1/91   0.228200E+06     Hf:TRC(10/93) w-3040. Gurvich,1991 pt1 p47 pt2 p39.           
 C2H2,vinylidene  g 5/01   0.414788E+06     Chen,1989. Osamura,1981.                                      
 C2H2CL2          tpis91   0.341000E+04     Gurvich,1991 pt1 p130 pt2 p101. 1,1 cis & trans in equil.     
 C2H2FCL          tpis91  -0.165082E+06     Gurvich,1991 pt1 p150 pt2 p125. 1,1 cis & trans in equil.     
 C2H2F2           tpis91  -0.336400E+06     Gurvich,1991 pt1 p101 pt2 p75. 1,1 cis & trans in equil.      
 CH2CO,ketene     g 4/02  -0.495761E+05     D0(H2C=CO): Ruscic,1999. Duncan,1987.                         
 O(CH)2O          g 3/02  -0.212000E+06     Glyoxal. Dorofeeva,2001. Hubner,1997. Zeleznik,2002.          
 HO(CO)2OH        srd 01  -0.731800E+06     Oxalic Acid, HO-CO-CO-OH. Dorofeeva,2001.                     
 C2H3,vinyl       g 7/01   0.299687E+06     Radical. Ervin,1990.                                          
 CH2Br-COOH       srd 01  -0.383500E+06     Bromoacetic Acid. Dorofeeva,2001.                             
 C2H3CL           g 5/02   0.220000E+05     Hf:Manion,2002. Gurvich,1991 pt1 p129 pt2 p100.               
 CH2CL-COOH       srd 01  -0.427600E+06     Chloroacetic Acid. Dorofeeva,2001.                            
 C2H3F            tpis91  -0.140100E+06     Gurvich,1991 pt1 p100 pt2 p74.                                
 CH3CN            g 9/00   0.664300E+05     Acetonitrile. TRC(6/93) w9270. Koga,1984. Pavone,1990.        
 CH3CO,acetyl     g 6/96  -0.100000E+05     Radical. Hf:Niiranen,1992. Nimlos,1989.                       
 C2H4             g 1/00   0.525000E+05     TRC(4/88) w2600. Chao,1975. Knippers,1985.                    
 C2H4O,ethylen-o  g 8/88  -0.526347E+05     Ethylene Oxide. Shimanouchi,1972. Chase,1998 9/65.            
 CH3CHO,ethanal   g 8/88  -0.166190E+06     Hf:TRC (6/78) w5300. Chao,1986.                               
 CH3COOH          g 6/00  -0.432249E+06     Acetic Acid. Chao,1978.                                       
 OHCH2COOH        srd 01  -0.583000E+06     Glycolic Acid. Dorofeeva,2001.                                
 C2H5             g 7/00   0.118658E+06     Chen,1990.                                                    
 C2H5Br           n 6/79  -0.636000E+05     Bromoethane. TRC(6/79) tuvw7650.                              
 C2H6             g 7/00  -0.838515E+05     Ethane. Pamidimukkala,1982.                                   
 CH3N2CH3         g 8/88   0.148699E+06     Azomethane. Pamidumukkala,1982.                               
 C2H5OH           g 8/88  -0.234950E+06     Hf:TRC(6/87) w5030. Chao,1986.                                
 CH3OCH3          g 7/00  -0.184110E+06     Dimethyl ether. Hf:TRC(6/91) w6040. Chao,1986.                
 CH3O2CH3         srd 01  -0.125500E+06     Dimethyl peroxide, CH3-O-O-CH3. Dorofeeva,2001.               
 CCN              g 7/00   0.804596E+06     Hf:Gurvich,1991 pt1 p222. Jacox,1998 p173.                    
 CNC              tpis91   0.684915E+06     CNC radical. Gurvich,1991 pt1 p221 pt2 p209.                  
 OCCN             srd 01   0.210000E+06     Cyanooxomethyl radical. Dorofeeva,2001.                       
 C2N2             tpis79   0.309100E+06     Gurvich,1979 pt1 p195 pt2 p220.                               
 C2O              g 8/00   0.291039E+06     Hf:Gurvich,1991 pt1 p31. Jacox,1998.                          
 C2S2             n 6/01   0.376660E+06     TRC(6/01) p8150, tuvw-8150.                                   
 C3               tpis79   0.839949E+06     Gurvich,1979 pt2 p23.                                         
 C3H3,1-propynl   n 4/98   0.450000E+06     TRC(4/98) tuvw3140.                                           
 C3H3,2-propynl   n 4/98   0.331800E+06     TRC(4/98) tuvw3140.                                           
 C3H4,allene      g 2/00   0.190920E+06     TRC(4/84) w2750. Shimanouchi,1972 p115. Butcher,1973a.        
 C3H4,propyne     g 1/00   0.184900E+06     Hf:TRC(10/93) w3040. Trambarulo,1950. Shimanouchi,1972.       
 C3H4,cyclo-      g 5/90   0.277100E+06     Dorofeeva,1986.                                               
 C3H5,allyl       g 3/01   0.163594E+06     Radical. Burcat,2001 p58.                                     
 C3H6,propylene   g 2/00   0.200000E+05     Hf:TRC(4/88) w2600. Chao,1975.                                
 C3H6,cyclo-      g 1/00   0.533000E+05     Dorofeeva,1986. Butcher,1973b.                                
 C3H6O,propylox   g 6/01  -0.937200E+05     TRC(6/84) w6150. Swalen,1957. Oetting,1964. Villarreal,1975.  
 C3H6O,acetone    g 6/97  -0.217150E+06     Chao,1986. Chao,1976.                                         
 C3H6O,propanal   g 1/02  -0.186000E+06     Hf:TRC(6/78) w5300. Chao,1986. Frankiss,1974.                 
 C3H7,n-propyl    g 7/01   0.100500E+06     Radical. Tsang,1985.                                          
 C3H7,i-propyl    g 9/85   0.933000E+05     Radical. Tsang,1985.                                          
 C3H8             g 2/00  -0.104680E+06     Hf:TRC(10/85) w1350. Chao,1973.                               
 C3H8O,1propanol  g 2/00  -0.255200E+06     Hf:TRC(6/87) w5030.  Chao,1986.                               
 C3H8O,2propanol  g 2/00  -0.272700E+06     Hf:TRC(6/87) w5030.  Chao,1986.                               
 CNCOCN           srd 01   0.247500E+06     Oxopropanedinitrile, NC-CO-CN. Dorofeeva,2001.                
 C3OS             n 6/01   0.157330E+06     TRC(6/01) p8150, tuvw-8150.                                   
 C3O2             g 7/88  -0.936380E+05     Hf:Chase,1998 p690 6/68. Shimanouchi,1977 p1083.              
 C3S2             n 6/01   0.412500E+06     TRC(6/01) p8150, tuvw-8150.                                   
 C4               g tpis   0.103390E+07     Gurvich,1991 pt1 p18 pt2 p16.                                 
 C4H2,butadiyne   g 7/01   0.450000E+06     1,3-Butadiyne. Dorofeeva,1991.                                
 C4H4,1,3-cyclo-  g 8/00   0.385000E+06     1,3-Cyclobutadiene. Dorofeeva,1986.                           
 C4H6,butadiene   n10/92   0.110000E+06     1,3-butadiene. TRC(10/92) tuvw2820.                           
 C4H6,1butyne     n10/93   0.165200E+06     TRC(10/93) tuvw3040.                                          
 C4H6,2butyne     n10/93   0.145700E+06     TRC(10/93) tuvw3040.                                          
 C4H6,cyclo-      g 8/00   0.156700E+06     Cyclobutene. Dorofeeva,1986.                                  
 C4H8,1-butene    n 4/88  -0.540000E+03     TRC(4/88) tuvw2600.                                           
 C4H8,cis2-buten  n 4/88  -0.740000E+04     Cis2-butene TRC(4/88) tuvw2600.                               
 C4H8,tr2-butene  n 4/88  -0.110000E+05     TRC(4/88) tuvw-2600.                                          
 C4H8,isobutene   n 4/88  -0.171000E+05     TRC(4/88) tuvw2600.                                           
 C4H8,cyclo-      g 8/00   0.284000E+05     Cyclobutane. Dorofeeva,1986.                                  
 (CH3COOH)2       g10/00  -0.929015E+06     Acetic acid dimer. Chao,1978.                                 
 C4H9,n-butyl     n10/84   0.665300E+05     TRC(10/84) tuvw1940.                                          
 C4H9,i-butyl     n10/84   0.573200E+05     2-methylpropyl. TRC(10/84) tuvw1940.                          
 C4H9,s-butyl     g 1/93   0.710000E+05     1-methylpropyl radical. Tsang,1985.                           
 C4H9,t-butyl     g 1/93   0.517000E+05     1,1dimethylethyl radical. Tsang,1985.                         
 C4H10,n-butane   g12/00  -0.125790E+06     Hf:TRC(10/85) w1350. Chen,1975.                               
 C4H10,isobutane  g 8/00  -0.134990E+06     TRC(10/85) w1350. Chen,1975.                                  
 C4N2             g 6/01   0.529200E+06     Hf:TRC(12/93) w8992. Khanna,1987. Brown,1989.                 
 C5               g 8/00   0.105092E+07     Gurvich,1991 pt1 p20 pt2 p18.                                 
 C5H6,1,3cyclo-   g 5/90   0.134300E+06     1,3-Cyclopentadiene. Pedley,1986 p90. Dorofeeva,1986.         
 C5H8,cyclo-      g 1/93   0.339000E+05     Cyclopentene. Hf:TRC(10/92) w2840. Dorofeeva,1986.            
 C5H10,1-pentene  n 4/87  -0.212800E+05     TRC(4/87) tuvw2500.                                           
 C5H10,cyclo-     g 2/01  -0.771000E+05     Cyclopentane. Dorofeeva,1986.                                 
 C5H11,pentyl     n10/84   0.458100E+05     Radical. TRC(10/84) tuvw1941.                                 
 C5H11,t-pentyl   g 1/93   0.326000E+05     1,1-dimethylpropyl radical. Tsang,1985.                       
 C5H12,n-pentane  n10/85  -0.146760E+06     TRC(10/85) tuvw1350.                                          
 C5H12,i-pentane  n10/85  -0.153700E+06     2-Methylbutane. TRC(10/85) tuvw1350.                          
 CH3C(CH3)2CH3    n10/85  -0.167920E+06     2,2-Dimethylpropane (neopentane). TRC(10/85) tuvw1350.        
 C6D5,phenyl      g 1/01   0.315740E+06     Radical-d5. Burcat,1985.                                      
 C6D6             g 1/01   0.581574E+05     Benzene-d6. Burcat,1985.                                      
 C6H2             g 2/93   0.670000E+06     Dorofeeva,1991.                                               
 C6H5,phenyl      g11/00   0.337200E+06     Radical.Hf:TRC(10/89) w4270. Jacox,1998. NASA ab initio.      
 C6H5O,phenoxy    g 8/00   0.477000E+05     Phenoxy radical. Burcat,1985.                                 
 C6H6             g 8/00   0.828800E+05     TRC(10/86)w3200. Pliva,1982,1983,1984. Shimanouchi,1972.      
 C6H5OH,phenol    g 8/00  -0.963990E+05     Burcat,1985.                                                  
 C6H10,cyclo-     g 1/93  -0.460000E+04     Cyclohexene. Dorofeeva,1986.                                  
 C6H12,1-hexene   n 4/87  -0.419500E+05     TRC(4/87) tuvw2500.                                           
 C6H12,cyclo-     g 6/90  -0.123300E+06     Cyclohexane. Dorofeeva,1986.                                  
 C6H13,n-hexyl    n10/83   0.251000E+05     TRC(10/83) tuvw1930.                                          
 C6H14,n-hexane   g 6/01  -0.166920E+06     TRC(4/85) tuvw1440.                                           
 C7H7,benzyl      g 7/01   0.210500E+06     Radical. Brouwer,1988. Hippler,1990.                          
 C7H8             g 1/93   0.501700E+05     Hf:TRC(4/98) w3510. Hitchcock,1975. Rudolph,1967.             
 C7H8O,cresol-mx  g12/00  -0.132298E+06     Eql. mixture of isomers. Kudchadker,1978.                     
 C7H14,1-heptene  n 4/87  -0.627600E+05     TRC(4/87) tuvw2500.                                           
 C7H15,n-heptyl   n10/83   0.439000E+04     TRC(10/83) tuvw1930.                                          
 C7H16,n-heptane  n10/85  -0.187780E+06     TRC(10/85) tuv1460. TRC(10/84) ptuv1010.                      
 C7H16,2-methylh  n10/85  -0.194600E+06     2-methylhexane. TRC(10/85) tuvw1460.                          
 C8H8,styrene     n 4/89   0.148300E+06     Ethenylbenzene. TRC(4/89) tuvw4490.                           
 C8H10,ethylbenz  n10/86   0.299200E+05     Ethylbenzene. TRC(10/86) tuvw3200.                            
 C8H16,1-octene   n 4/87  -0.835900E+05     TRC(4/87) tuvw2500.                                           
 C8H17,n-octyl    n10/83  -0.163200E+05     TRC(10/83) tuvw1930.                                          
 C8H18,n-octane   n 4/85  -0.208750E+06     TRC(4/85) tuvw1490.                                           
 C8H18,isooctane  n 4/85  -0.224010E+06     2,2,4-Trimethylpentane. TRC(4/85) tuvw1490.                   
 C9H19,n-nonyl    n10/83  -0.370300E+05     TRC (10/83) tuvw1930.                                         
 C10H8,naphthale  g 3/01   0.150580E+06     Naphthalene. Chen,1979.                                       
 C10H21,n-decyl   n10/83  -0.577400E+05     TRC(10/83) tuvw1930.                                          
 C12H9,o-bipheny  g 8/00   0.427730E+06     o-Biphenyl radical. Burcat,1985.                              
 C12H10,biphenyl  g 8/00   0.182130E+06     Burcat,1985.                                                  
 Ca               g 8/97   0.177800E+06     Hf:Cox,1989. Sugar,1985. Gordon,1999.                         
 Ca+              g 1/98   0.773828E+06     Sugar,1985. Gordon,1999.                                      
 CaBr             tpis96  -0.248687E+05     Gurvich,1996a pt1 p471 pt2 p367.                              
 CaBr2            tpis96  -0.387197E+06     Gurvich,1996a pt1 p474 pt2 p369.                              
 CaCL             tpis96  -0.103773E+06     Gurvich,1996a pt1 p464 pt2 p363.                              
 CaCL+            tpis96   0.467191E+06     Gurvich,1996a pt1 p466 pt2 p364.                              
 CaCL2            tpis96  -0.485243E+06     Gurvich,1996a pt1 p470 pt2 p366.                              
 CaF              tpis96  -0.276404E+06     Gurvich,1996a pt1 p456 pt2 p359.                              
 CaF+             tpis96   0.260665E+06     Gurvich,1996a pt1 p460 pt2 p360.                              
 CaF2             tpis96  -0.790828E+06     Gurvich,1996a pt1 p462 pt2 p362.                              
 CaH              tpis96   0.229409E+06     Gurvich,1996a pt1 p447 pt2 p353.                              
 CaI              tpis96   0.121833E+05     Gurvich,1996a pt1 p474 pt2 p370.                              
 CaI2             tpis96  -0.259320E+06     Gurvich,1996a pt1 p477 pt2 p372.                              
 CaO              tpis96   0.380053E+05     Gurvich,1996a pt1 p443 pt2 p349.                              
 CaO+             tpis96   0.710238E+06     Gurvich,1996a pt1 p445 pt2 p351.                              
 CaOH             tpis96  -0.173307E+06     Gurvich,1996a pt1 p451 pt2 p355.                              
 CaOH+            tpis96   0.372938E+06     Gurvich,1996a pt1 p452 pt2 p356.                              
 Ca(OH)2          tpis96  -0.598339E+06     Gurvich,1996a pt1 p455 pt2 p358.                              
 CaS              tpis96   0.121475E+06     Gurvich,1996a pt1 p480 pt2 p374.                              
 Ca2              tpis96   0.341765E+06     Gurvich,1996a pt1 p439 pt2 p347.                              
 Cd               g 7/97   0.111800E+06     Hf:Cox,1989. Moore,1971. Gordon,1999.                         
 Cd+              g 7/97   0.985754E+06     Moore,1971. Gordon,1999.                                      
 CL               g 7/97   0.121301E+06     Hf:Cox,1989. Moore,1971. Moore,1970a. Gordon,1999.            
 CL+              g 1/98   0.137880E+07     Moore,1971. Moore,1970a. Gordon,1999.                         
 CL-              g 4/97  -0.233958E+06     Hotop,1985. Gordon,1999.                                      
 CLCN             g 6/95   0.134200E+06     Gurvich,1991 pt1 p230 pt2 p218                                
 CLF              tpis89  -0.557010E+05     Gurvich,1989 pt1 p190 pt2 p97.                                
 CLF3             tpis89  -0.164600E+06     Gurvich,1989 pt1 p193 pt2 p98.                                
 CLF5             tpis89  -0.238000E+06     Gurvich,1989 pt1 p194 pt2 p99.                                
 CLO              tpis89   0.101621E+06     Gurvich,1989 pt1 p180 pt2 p90.                                
 CLO2             g 7/93   0.105000E+06     Gurvich,1989 pt1 p182 pt2 p91.                                
 CL2              tpis89   0.000000E+00     Ref-Elm. Gurvich,1989 pt1 p177 pt2 p88.                       
 CL2O             tpis89   0.790000E+05     Gurvich,1989 pt1 p184 pt2 p92.                                
 Co               g 7/97   0.428442E+06     Hf:Hultgren,1973. Sugar,1985. Gordon,1999.                    
 Co+              g 7/97   0.119300E+07     Sugar,1985. Gordon,1999.                                      
 Co-              g 9/97   0.358414E+06     Hotop,1985. Gordon,1999.                                      
 Cr               g 7/97   0.397480E+06     Hf:Chase,1998 p963 6/79. Sugar,1985. Gordon,1999.             
 Cr+              g 7/97   0.105655E+07     Sugar,1985. Gordon,1999.                                      
 Cr-              g10/97   0.327023E+06     Hotop,1985. Gordon,1999.                                      
 CrN              j12/73   0.505009E+06     Chase,1998 p967.                                              
 CrO              tpis82   0.186581E+06     Gurvich,1982 pt1 p13 pt2 p17.                                 
 CrO2             tpis82  -0.108043E+06     Gurvich,1982 pt1 p16 pt2 p19.                                 
 CrO3             tpis82  -0.322037E+06     Gurvich,1982 pt1 p17 pt2 p20.                                 
 CrO3-            tpis82  -0.632851E+06     Gurvich,1982 pt1 p18 pt2 p21.                                 
 Cs               g 7/97   0.765000E+05     Hf:Cox,1989. Moore,1971. Moore,1970a. Gordon,1999.            
 Cs+              g 1/98   0.458402E+06     Moore,1971. Gordon,1999.                                      
 Cs-              g10/97   0.247972E+05     Hotop,1985. Gordon,1999.                                      
 CsBO2            tpis82  -0.686902E+06     Gurvich,1982 pt1 p505 pt2 p526.                               
 CsBr             tpis82  -0.206829E+06     Gurvich,1982 pt1 p490 pt2 p512.                               
 CsCL             tpis82  -0.242229E+06     Gurvich,1982 pt1 p487 pt2 p509.                               
 CsF              tpis82  -0.364215E+06     Gurvich,1982 pt1 p483 pt2 p506.                               
 CsH              tpis82   0.115950E+06     Gurvich,1982 pt1 p477 pt2 p501.                               
 CsI              tpis82  -0.152320E+06     Gurvich,1982 pt1 p494 pt2 p515.                               
 CsLi             tpis82   0.162146E+06     Gurvich,1982 pt1 p505 pt2 p527.                               
 CsNO2            tpis82  -0.210340E+06     Gurvich,1982 pt1 p499 pt2 p520.                               
 CsNO3            tpis82  -0.318486E+06     Gurvich,1982 pt1 p501 pt2 p522.                               
 CsNa             tpis82   0.125907E+06     Gurvich,1982 pt1 p506 pt2 p528.                               
 CsO              tpis82   0.375873E+05     Gurvich,1982 pt1 p471 pt2 p493.                               
 CsOH             g 9/97  -0.256000E+06     Gurvich,1997.                                                 
 CsRb             tpis82   0.111477E+06     Gurvich,1982 pt1 p508 pt2 p530.                               
 Cs2              tpis82   0.109404E+06     Gurvich,1982 pt1 p467 pt2 p492.                               
 Cs2Br2           tpis82  -0.565829E+06     Gurvich,1982 pt1 p491 pt2 p513.                               
 Cs2CO3           tpis82  -0.806448E+06     Gurvich,1982 pt1 p503 pt2 p524.                               
 Cs2CL2           tpis82  -0.644658E+06     Gurvich,1982 pt1 p487 pt2 p510.                               
 Cs2F2            tpis82  -0.891859E+06     Gurvich,1982 pt1 p484 pt2 p507.                               
 Cs2I2            tpis82  -0.454033E+06     Gurvich,1982 pt1 p495 pt2 p516.                               
 Cs2O             tpis82  -0.142855E+06     Gurvich,1982 pt1 p473 pt2 p496.                               
 Cs2O+            tpis82   0.283700E+06     Gurvich,1982 pt1 p474 pt2 p497.                               
 Cs2O2            tpis82  -0.247069E+06     Gurvich,1982 pt1 p476 pt2 p499.                               
 Cs2O2H2          g 9/97  -0.653000E+06     Gurvich,1997.                                                 
 Cs2SO4           g10/99  -0.111765E+07     Gurvich,1982 pt1 p497 pt2 p518.                               
 Cu               g12/97   0.337400E+06     Hf:Cox,1989. Sugar,1990. Gordon,1999.                         
 Cu+              g 3/98   0.108908E+07     Sugar,1990. Gordon,1999.                                      
 Cu-              g10/97   0.212719E+06     Hotop,1985. Gordon,1999.                                      
 CuCL             j 3/66   0.910900E+05     Chase,1998 p748.                                              
 CuF              j12/77  -0.125500E+05     Chase,1998 p1013.                                             
 CuF2             j12/77  -0.266940E+06     Chase,1998 p1017.                                             
 CuO              j12/77   0.306270E+06     Chase,1998 p1020.                                             
 CuOH             g 8/04   0.110818E+06     Jacox,1994. Nu1:Whitham,2000. Hf:V.N.Belyaev,1978.            
 Cu2              j 9/66   0.485340E+06     Chase,1998 p1022.                                             
 Cu3CL3           j 3/66  -0.258570E+06     Chase,1998 p874.                                              
 D                g 6/97   0.221720E+06     D0(D2): Herzberg,1970. Moore,1972. Gordon,1999.               
 D+               g 9/96   0.154032E+07     Moore,1972. Gordon,1999.                                      
 D-               g 8/96   0.142753E+06     Hotop,1985. Gordon,1999.                                      
 DBr              tpis89  -0.370365E+05     Gurvich,1989 pt1 p206 pt2 p107.                               
 DCL              tpis89  -0.935470E+05     Gurvich,1989 pt1 p188 pt2 p95.                                
 DF               tpis89  -0.276228E+06     Gurvich,1989 pt1 p172 pt2 p80.                                
 DOCL             g 1/01  -0.795387E+05     D0 estimated from HOCL. Jacox,1998 p155.                      
 DO2              tpis89   0.648734E+04     Gurvich,1989 pt1 p138 pt2 p49.                                
 DO2-             tpis89  -0.104796E+06     Gurvich,1989 pt1 p139 pt2 p50.                                
 D2               tpis89   0.000000E+00     Ref-Species. Gurvich,1989 pt1 p134 pt2 p45.                   
 D2+              j 9/77   0.149857E+07     Chase,1998 p1041.                                             
 D2-              j 9/77   0.235161E+06     Chase,1998 p1042.                                             
 D2O              g 6/99  -0.249210E+06     Gurvich,1989 pt1 p142 pt2 p51.                                
 D2O2             g 6/99  -0.144300E+06     Gurvich,1989 pt1 p142 pt2 p52.                                
 D2S              g 6/01  -0.240065E+05     Miller,1967. H2S data.                                        
 F                g 5/97   0.793800E+05     Hf:Cox,1989.  Moore,1971. Moore,1970a. Gordon,1999.           
 F+               g 3/97   0.176682E+07     Moore,1971. Moore,1970a. Gordon,1999.                         
 F-               g 1/98  -0.255092E+06     Hotop,1985. Gordon,1999.                                      
 FCN              g 5/99   0.343279E+05     Gurvich,1991 pt1 p229 pt2 p217.                               
 FCO              g12/99  -0.179418E+06     Hf:Gurvich,1991 pt1 p87. Jacox,1998 p193.                     
 FO               j 9/95   0.109012E+06     Chase,1996b p582.                                             
 FO2,FOO          j 9/95   0.254000E+05     Chase,1996b p582.                                             
 FO2,OFO          j 9/95   0.378600E+06     Chase,1996b p583.                                             
 F2               tpis89   0.000000E+00     Ref-Elm. Gurvich,1989. pt1 p157 pt2 p73.                      
 F2O              g 4/99   0.245000E+05     Gurvich,1989 pt1 p161 pt2 p76.                                
 F2O2             j 9/95   0.192000E+05     FOOF. Chase,1996b p585.                                       
 FS2F             j 6/76  -0.336435E+06     Difluorodisulfane. Chase,1998 p1146.                          
 Fe               g 5/97   0.415471E+06     Hf:Hultgren,1973. Sugar,1985. Gordon,1999.                    
 Fe+              g 3/98   0.118422E+07     Sugar,1985. Gordon,1999.                                      
 Fe-              g 9/97   0.393338E+06     Hotop,1985. Gordon,1999.                                      
 Fe(CO)5          j 3/78  -0.727850E+06     Chase,1998 p698.                                              
 FeCL             j 6/65   0.251040E+06     Chase,1998 p761.                                              
 FeCL2            j12/70  -0.141001E+06     Chase,1998 p822.                                              
 FeCL3            j 6/65  -0.105910E+07     Chase,1998 p879.                                              
 FeO              j 9/66   0.251040E+06     Chase,1998 p1239.                                             
 Fe(OH)2          j12/66  -0.330536E+06     Chase,1998 p1230.                                             
 Fe2CL4           j12/70  -0.431370E+06     Chase,1998 p891.                                              
 Fe2CL6           j 6/65  -0.654378E+06     Chase,1998 p928.                                              
 Ga               g12/98   0.272000E+06     Hf:Gurvich,1996a. Moore,1971. Johansson,1967. Gordon,1999.    
 Ga+              g12/98   0.856688E+06     IP:Johansson,1967. Moore,1971. Gordon,1999.                   
 GaBr             tpis96  -0.179679E+05     Gurvich,1996a pt1 p239 pt2 p193                               
 GaBr2            tpis96  -0.149181E+06     Gurvich,1996a pt1 p241 pt2 p194.                              
 GaBr3            tpis96  -0.292963E+06     Gurvich,1996a pt1 p243 pt2 p196.                              
 GaCL             tpis96  -0.696214E+05     Gurvich,1996a pt1 p231 pt2 p186                               
 GaCL2            tpis96  -0.220979E+06     Gurvich,1996a pt1 p232 pt2 p187.                              
 GaCL3            tpis96  -0.432625E+06     Gurvich,1996a pt1 p235 pt2 p189.                              
 GaF              tpis96  -0.232608E+06     Gurvich,1996a pt1 p224 pt2 p179                               
 GaF2             tpis96  -0.516712E+06     Gurvich,1996a pt1 p225 pt2 p180.                              
 GaF3             tpis96  -0.921477E+06     Gurvich,1996a pt1 p226 pt2 p182.                              
 GaH              tpis96   0.214323E+06     Gurvich,1996a pt1 p220 pt2 p177                               
 GaI              tpis96   0.448711E+05     Gurvich,1996a pt1 p247 pt2 p200                               
 GaI2             tpis96  -0.289550E+05     Gurvich,1996a pt1 p249 pt2 p201.                              
 GaI3             tpis96  -0.115877E+06     Gurvich,1996a pt1 p250 pt2 p203.                              
 GaO              tpis96   0.146824E+06     Gurvich,1996a pt1 p214 pt2 p174                               
 GaOH             tpis96  -0.143630E+06     Gurvich,1996a pt1 p222 pt2 p178.                              
 Ga2Br2           tpis96  -0.136964E+06     Gurvich,1996a pt1 p244 pt2 p197.                              
 Ga2Br4           tpis96  -0.415820E+06     Gurvich,1996a pt1 p245 pt2 p198.                              
 Ga2Br6           tpis96  -0.673689E+06     Gurvich,1996a pt1 p246 pt2 p199.                              
 Ga2CL2           tpis96  -0.220973E+06     Gurvich,1996a pt1 p237 pt2 p190.                              
 Ga2CL4           tpis96  -0.602327E+06     Gurvich,1996a pt1 p237 pt2 p191.                              
 Ga2CL6           tpis96  -0.962464E+06     Gurvich,1996a pt1 p238 pt2 p192.                              
 Ga2F2            tpis96  -0.606231E+06     Gurvich,1996a pt1 p228 pt2 p183.                              
 Ga2F4            tpis96  -0.132500E+07     Gurvich,1996a pt1 p228 pt2 p184.                              
 Ga2F6            tpis96  -0.201762E+07     Gurvich,1996a pt1 p230 pt2 p185.                              
 Ga2I2            tpis96   0.135209E+05     Gurvich,1996a pt1 p252 pt2 p204.                              
 Ga2I4            tpis96  -0.159268E+06     Gurvich,1996a pt1 p253 pt2 p205.                              
 Ga2I6            tpis96  -0.317295E+06     Gurvich,1996a pt1 p253 pt2 p206.                              
 Ga2O             tpis96  -0.994575E+05     Gurvich,1996a pt1 p216 pt2 p175.                              
 Ge               g 3/99   0.367800E+06     Hf:Gurvich,1991 pt1 p311. Sugar,1993. Gordon,1999.            
 Ge+              g 3/99   0.113498E+07     Sugar,1993. Gordon,1999.                                      
 Ge-              g 3/99   0.245403E+06     Hotop,1985. Gordon,1999.                                      
 GeBr             tpis91   0.137438E+06     Gurvich,1991 pt1 p333 pt2 p287.                               
 GeBr2            tpis91  -0.609629E+05     Gurvich,1991 pt1 p334 pt2 p288.                               
 GeBr3            tpis91  -0.119031E+06     Gurvich,1991 pt1 p335 pt2 p289.                               
 GeBr4            tpis91  -0.291000E+06     Gurvich,1991 pt1 p336 pt2 p290.                               
 GeCL             tpis91   0.690299E+05     Gurvich,1991 pt1 p328 pt2 p283.                               
 GeCL2            tpis91  -0.171000E+06     Gurvich,1991 pt1 p330 pt2 p284.                               
 GeCL3            g 6/01  -0.266951E+06     Hf:Gurvich,1991 pt1 p331. Gurvich,1979 pt2 p287.              
 GeCL4            tpis91  -0.500000E+06     Gurvich,1991 pt1 p332 pt2 p286.                               
 GeF              tpis91  -0.705930E+05     Gurvich,1991 pt1 p324 pt2 p279.                               
 GeF2             tpis91  -0.574000E+06     Gurvich,1991 pt1 p326 pt2 p280.                               
 GeF3             g 6/01  -0.806333E+06     Hf:Gurvich,1991 pt1 p327. Gurvich,1979 v2 pt2 p283.           
 GeF4             tpis91  -0.119015E+07     Gurvich,1991 pt1 p328 pt2 p282.                               
 GeH4             bar89    0.907930E+05     Barin,1989 pt1 p628.                                          
 GeI              tpis91   0.210969E+06     Gurvich,1991 pt1 p337 pt2 p291.                               
 GeO              tpis91  -0.376943E+05     Gurvich,1991 pt1 p315 pt2 p274.                               
 GeO2             tpis91  -0.106172E+06     Gurvich,1991 pt1 p323 pt2 p278.                               
 GeS              tpis91   0.925251E+05     Gurvich,1991 pt1 p344 pt2 p297.                               
 GeS2             tpis91   0.118818E+06     Gurvich,1991 pt1 p347 pt2 p299.                               
 Ge2              tpis91   0.471499E+06     Gurvich,1991 pt1 p313 pt2 p273.                               
 H                g 6/97   0.217999E+06     D0(H2):Herzberg,1970. Moore,1972. Gordon,1999.                
 H+               g10/00   0.153625E+07     IP(H): Moore,1972. Gordon,1999.                               
 H-               g 9/96   0.139031E+06     Hotop,1985. Gordon,1999.                                      
 HALO             tpis96   0.182111E+04     Gurvich,1996a pt1 p147 pt2 p111.                              
 HALO2            tpis96  -0.355474E+06     Gurvich,1996a pt1 p148 pt2 p112.                              
 HBO              tpis96  -0.210621E+06     Boron oxide-hydride Gurvich,1996a  pt1 p39,pt2 p23.           
 HBO+             g 1/01   0.117522E+07     Chase,1998 p223 12/75.                                        
 HBO2             tpis96  -0.560210E+06     Gurvich,1996a pt1 p42 pt2 p26.                                
 HBS              g 2/01   0.502080E+05     Chase,1998 p227 12/75. Jacox,1994.                            
 HBS+             g 1/01   0.112946E+07     Chase,1998 p228 12/75. Jacox,1998 p141.                       
 HBr              tpis89  -0.362900E+05     Gurvich,1989 pt1 p205 pt2 p106.                               
 HCN              g 6/01   0.133082E+06     Hf: East,1993. Gurvich,1991 pt1 p226.                         
 HCO              g 1/01   0.423978E+05     Hf:Terentis,1996. Jacox,1998 p146.                            
 HCO+             g 1/01   0.833034E+06     Formyl ion. Hf:Chase,1998 p603 12/70. Jacox,1998 p145.        
 HCCN             tpis89   0.610431E+06     Gurvich,1989 pt1 p228 pt2 p216.                               
 HCCO             g 6/01   0.176568E+06     Ketenyl rad. Osborn,1997. Szalay,1996. Jacox,1998 p156.       
 HCL              tpis89  -0.923100E+05     Gurvich,1989 pt1 p186 pt2 p93.                                
 HD               tpis89   0.323302E+03     Gurvich,1989 pt1 p144 pt2 p53.                                
 HD+              j 9/77   0.149679E+07     Chase,1998 p1034.                                             
 HDO              g 5/99  -0.245280E+06     Gurvich,1989 pt1 p145 pt2 p55.                                
 HDO2             g 5/99  -0.140242E+06     Gurvich,1989 pt1 p146 pt2 p56.                                
 HF               tpis89  -0.273300E+06     Gurvich,1989 pt1 p162 pt2 p77.                                
 HI               j 9/61   0.263590E+05     Chase,1998 p1265.                                             
 HNC              g 6/01   0.194378E+06     Hf:Gurvich,1991 pt1 p227. Jacox,1998 p145.                    
 HNCO             g 7/00  -0.118057E+06     Hf:East,1993. Jacox,1998 p236.                                
 HNO              g10/01   0.102033E+06     Gurvich,1989 pt1 p362 pt2 p227. Jacox,1998 p151.              
 HNO2             tpis89  -0.784519E+05     Cis-trans. Gurvich,1989 pt1 p363 pt2 p228.                    
 HNO3             g 5/99  -0.133913E+06     Gurvich,1989 pt1 p367 pt2 p231.                               
 HOCL             g 1/01  -0.757400E+05     Hf:Gurvich,1989 pt1 p187. Jacox,1998 p155.                    
 HOF              tpis89  -0.968982E+05     Gurvich,1989 pt1 p171 pt2 p79.                                
 HO2              g 4/02   0.120200E+05     Hf:Hills,1984 & NASA data. Jacox,1998 p153.                   
 HO2-             g 5/02  -0.979231E+05     B3LYP.  EA: Oakes, 1985.                                      
 HPO              tpis89  -0.568688E+05     Hf:Gurvich,1989 pt1 p424. Jacox,1994 p46.                     
 HSO3F            j 6/72  -0.753120E+06     Chase,1998 p1057.                                             
 H2               tpis78   0.000000E+00     Ref-Elm. Gurvich,1978 pt1 p103 pt2 p31.                       
 H2+              tpis78   0.149467E+07     Gurvich,1978 pt1 p107 pt2 p33.                                
 H2-              j 9/77   0.235168E+06     Chase,1998 p1312.                                             
 HBOH             g 9/98  -0.487244E+05     Gurvich,1996a pt1 p44 pt2 p27.                                
 HCHO,formaldehy  g 5/01  -0.108580E+06     Hf:TRC(6/78) w-5300. Gurvich,1991 pt1 p62 pt2 p47.            
 HCOOH            g 6/01  -0.378570E+06     Formic acid. Chao,1978.                                       
 H2F2             tpis89  -0.569924E+06     Gurvich,1989  v1 pt1 p164 pt2 p308.                           
 H2O              g 8/89  -0.241826E+06     Hf:Cox,1989. Woolley,1987. TRC(10/88) tuv25.                  
 H2O+             tpis89   0.981602E+06     Gurvich,1989 pt1 p125 pt2 p38.                                
 H2O2             g 6/99  -0.135880E+06     Hf:Gurvich,1989 pt1 p127. Gurvich,1978 pt1 p121.              
 H2S              g 4/01  -0.206000E+05     Gurvich,1989 pt1 p298 pt2 p181.                               
 H2SO4            tpis89  -0.732732E+06     Gurvich,1989 pt1 p300 pt2 p182.                               
 H2BOH            tpis96  -0.289634E+06     Gurvich,1996a pt1 p46 pt2 p29.                                
 HB(OH)2          tpis96  -0.644439E+06     Gurvich,1996a pt1 p47 pt2 p30.                                
 H3BO3            tpis96  -0.100436E+07     Gurvich,1996a pt1 p50 pt2 p32.                                
 H3B3O3           tpis96  -0.120376E+07     Gurvich,1996a pt1 p53 pt2 p34.                                
 H3B3O6           tpis96  -0.226369E+07     Gurvich,1996a pt1 p55 pt2 p35.                                
 H3F3             tpis89  -0.883677E+06     Gurvich,1989 pt1 p166 pt2 p309.                               
 H3O+             tpis89   0.598000E+06     Gurvich,1989 pt1 p130 pt2 p41.                                
 (HCOOH)2         g 6/01  -0.820943E+06     Formic acid dimer. Chao,1978.                                 
 H4F4             tpis89  -0.118693E+07     Gurvich,1989 pt1 p167 pt2 p310.                               
 H5F5             tpis89  -0.149019E+07     Gurvich,1989 pt1 p168 pt2 p311.                               
 H6F6             tpis89  -0.180555E+07     Gurvich,1989 pt1 p169 pt2 p312.                               
 H7F7             tpis89  -0.209970E+07     Gurvich,1989 pt1 p170 pt2 p313.                               
 He               g 5/97   0.000000E+00     Ref-Elm. Moore,1971. Moore,1970a. Gordon,1999.                
 He+              g 3/97   0.237852E+07     Moore,1971; Moore,1970a. Gordon,1999.                         
 Hg               g 1/98   0.613800E+05     Hf:Cox,1989. Moore,1971. Gordon,1999.                         
 Hg+              g 7/97   0.107464E+07     Moore,1971. Gordon,1999.                                      
 HgBr2            g12/00  -0.913116E+05     Hf: Pankratz,1984. Chase,1998 p485 3/62.                      
 I                g 3/97   0.106760E+06     Hf:Cox,1989. Moore,1971. Moore,1970a. Gordon,1999.            
 I+               g10/97   0.112135E+07     Moore,1971. Moore,1970a. Gordon,1999.                         
 I-               g10/97  -0.194596E+06     Hotop,1985. Gordon,1999.                                      
 IF5              tpis89  -0.841000E+06     Gurvich,1989 pt1 p232 pt2 p123.                               
 IF7              tpis89  -0.961500E+06     Gurvich,1989 pt1 p234 pt2 p124.                               
 I2               tpis89   0.624200E+05     Gurvich,1989 pt1 p220 pt2 p117.                               
 In               g 1/99   0.240700E+06     Hf:Gurvich,1996a. Johansson,1967. Moore,1971. Gordon,1999.    
 In+              g 4/99   0.699643E+04     IP:Johansson,1967. Moore,1971. Gordon,1999.                   
 InBr             tpis96  -0.541159E+05     Gurvich,1996a pt1 p291 pt2 p233                               
 InBr2            tpis96  -0.149729E+06     Gurvich,1996a pt1 p292 pt2 p234.                              
 InBr3            tpis96  -0.256587E+06     Gurvich,1996a pt1 p292 pt2 p236.                              
 InCL             tpis96  -0.721479E+05     Gurvich,1996a pt1 p281 pt2 p225                               
 InCL2            tpis96  -0.201483E+06     Gurvich,1996a pt1 p283 pt2 p226.                              
 InCL3            tpis96  -0.369693E+06     Gurvich,1996a pt1 p286 pt2 p228.                              
 InF              tpis96  -0.193420E+06     Gurvich,1996a pt1 p272 pt2 p217.                              
 InF2             tpis96  -0.457187E+06     Gurvich,1996a pt1 p274 pt2 p218.                              
 InF3             tpis96  -0.863080E+06     Gurvich,1996a pt1 p276 pt2 p220.                              
 InH              tpis96   0.215017E+06     Gurvich,1996a pt1 p269 pt2 p215                               
 InI              tpis96   0.264171E+05     Gurvich,1996a pt1 p298 pt2 p241.                              
 InI2             tpis96  -0.394606E+05     Gurvich,1996a pt1 p300 pt2 p243.                              
 InI3             tpis96  -0.105436E+06     Gurvich,1996a pt1 p301 pt2 p245.                              
 InO              tpis96   0.145993E+06     Gurvich,1996a pt1 p261 pt2 p212                               
 InOH             tpis96  -0.124447E+06     Gurvich,1996a pt1 p271 pt2 p216.                              
 In2Br2           tpis96  -0.196305E+06     Gurvich,1996a pt1 p294 pt2 p237.                              
 In2Br4           tpis96  -0.436509E+06     Gurvich,1996a pt1 p295 pt2 p238.                              
 In2Br6           tpis96  -0.628683E+06     Gurvich,1996a pt1 p296 pt2 p239.                              
 In2CL2           tpis96  -0.232177E+06     Gurvich,1996a pt1 p287 pt2 p229.                              
 In2CL4           tpis96  -0.579126E+06     Gurvich,1996a pt1 p287 pt2 p230.                              
 In2CL6           tpis96  -0.882340E+06     Gurvich,1996a pt1 p288 pt2 p231.                              
 In2F2            tpis96  -0.532234E+06     Gurvich,1996a pt1 p276 pt2 p221.                              
 In2F4            tpis96  -0.128479E+07     Gurvich,1996a pt1 p277 pt2 p222.                              
 In2F6            tpis96  -0.196000E+07     Gurvich,1996a pt1 p279 pt2 p223.                              
 In2I2            tpis96  -0.278135E+05     Gurvich,1996a pt1 p303 pt2 p246.                              
 In2I4            tpis96  -0.199143E+06     Gurvich,1996a pt1 p304 pt2 p247.                              
 In2I6            tpis96  -0.319720E+06     Gurvich,1996a pt1 p305 pt2 p248.                              
 In2O             tpis96  -0.347637E+05     Gurvich,1996a pt1 p264 pt2 p213.                              
 K                g 7/97   0.890000E+05     Hf:Cox,1989. Sugar,1985. Gordon 1999.                         
 K+               g 6/97   0.514008E+06     Sugar,1985. Gordon 1999.                                      
 K-               g 9/97   0.344181E+05     Hotop,1985. Gordon 1999.                                      
 KALF4            tpis82  -0.190786E+07     Gurvich,1982 pt1 p417 pt2 p441.                               
[...]
 SrCL2(b)         tpis96  -0.833000E+06     Beta,cubic. Gurvich,1996a pt1 p518 pt2 p400.                  
 SrCL2(L)         tpis96  -0.833000E+06     Liquid. Gurvich,1996a pt1 p518 pt2 p400.                      
 SrF2(a)          tpis96  -0.122900E+07     Alpha,cubic. Gurvich,1996a pt1 p513 pt2 p396.                 
 SrF2(b)          tpis96  -0.122900E+07     Beta,cubic. Gurvich,1996a pt1 p513 pt2 p396.                  
 SrF2(L)          tpis96  -0.122900E+07     Liquid. Gurvich,1996a pt1 p515 pt2 p396.                      
 SrH2(a)          tpis96  -0.180000E+06     Alpha,rhombic. Gurvich,1996a pt1 p501 pt2 p389.               
 SrH2(b)          tpis96  -0.180000E+06     Beta. Gurvich,1996a pt1 p501 pt2 p389.                        
 SrH2(L)          tpis96  -0.180000E+06     Liquid. Gurvich,1996a pt1 p501 pt2 p389.                      
 SrI2(cr)         tpis96  -0.568000E+06     Rhombic. Gurvich,1996a pt1 p527 pt2 p406.                     
 SrI2(L)          tpis96  -0.568000E+06     Liquid. Gurvich,1996a pt1 p527 pt2 p406.                      
 SrO(cr)          tpis96  -0.591000E+06     Cubic. Gurvich,1996a pt1 p494 pt2 p383.                       
 SrO(L)           tpis96  -0.591000E+06     Liquid. Gurvich,1996a pt1 p494 pt2 p383.                      
 Sr(OH)2(b)       tpis96  -0.964300E+06     Beta,tetragonal. Gurvich,1996a pt1 p505 pt2 p392.             
 Sr(OH)2(a)       tpis96  -0.964300E+06     Alpha. Gurvich,1996a pt1 p505 pt2 p392.                       
 Sr(OH)2(L)       tpis96  -0.964300E+06     Liquid. Gurvich,1996a pt1 p505 pt2 p392.                      
 SrS(cr)          tpis96  -0.480000E+06     Cubic. Gurvich,1996a pt1 p528 pt2 p408.                       
 SrS(L)           tpis96  -0.480000E+06     Liquid. Gurvich,1996a pt1 p528 pt2 p408.                      
 SrSO4(a)         tpis96  -0.145700E+07     Alpha,Rhombic. Gurvich,1996a pt1 p531 pt2 p410.               
 SrSO4(b)         tpis96  -0.145700E+07     Beta,hexagonal. Gurvich,1996a pt1 p531 pt2 p410.              
 SrSO4(L)         tpis96  -0.145700E+07     Liquid. Gurvich,1996a pt1 p531 pt2 p410.                      
 Ta(cr)           j12/72   0.000000E+00     Crystal. Ref-Elm. Chase,1998 pp1899-1901.                     
 Ta(L)            j12/72   0.000000E+00     Liquid. Ref-Elm. Chase,1998 pp1899-1901.                      
 TaC(cr)          j12/73  -0.144097E+06     Chase,1998 pp652-4.                                           
 TaC(L)           j12/73  -0.144097E+06     Chase,1998 pp652-4.                                           
 Ta2O5(II)        tpis82  -0.204900E+07     Rhombic. Gurvich,1982 pt1 p91 pt2 p92.                        
 Ta2O5(I)         tpis82  -0.204900E+07     Monoclinic. Gurvich,1982 pt1 p91 pt2 p92.                     
 Ta2O5(L)         tpis82  -0.204900E+07     Liquid. Gurvich,1982 pt1 p91 pt2 p92.                         
 Th(a)            coda89   0.000000E+00     Alpha. Ref-Elm. Cox,1989 p239.                                
 Th(b)            coda89   0.000000E+00     Beta. Ref-Elm. Cox,1989 p239.                                 
 Th(L)            coda89   0.000000E+00     Liquid. Ref-Elm. Cox,1989 p239.                               
 Ti(a)            coda89   0.000000E+00     Alpha. Ref-Elm. Cox,1989 p230.                                
 Ti(b)            coda89   0.000000E+00     Beta. Ref-Elm. Cox,1989 p230.                                 
 Ti(L)            coda89   0.000000E+00     Liquid. Ref-Elm. Cox,1989 p230.                               
 TiB(cr)          j 6/65  -0.160247E+06     Crystal. Chase,1998. p258.                                    
 TiB2(cr)         j 6/65  -0.279491E+06     Crystal. Chase,1998 pp276-8.                                  
 TiB2(L)          j 6/65  -0.279491E+06     Liquid. Chase,1998 pp276-8.                                   
 TiC(cr)          j 6/68  -0.184096E+06     Chase,1998 p655-7                                             
 TiC(L)           j 6/68  -0.184096E+06     Chase,1998 p655-7                                             
 TiCL2(cr)        j12/68  -0.515470E+06     Chase,1998 p865.                                              
 TiCL3(cr)        j12/68  -0.721740E+06     Chase,1998 p886.                                              
 TiCL4(L)         j12/67  -0.804165E+06     Chase,1998 p904.                                              
 TiN(cr)          j 6/68  -0.337649E+06     Chase,1998 pp1612-4.                                          
 TiN(L)           j 6/68  -0.337649E+06     Chase,1998 pp1612-4.                                          
 TiO(a)           tpis82  -0.542000E+06     Alpha,monoclinic. Gurvich,1982 pt1 p98 pt2 p99.               
 TiO(b)           tpis82  -0.542000E+06     Beta,cubic. Gurvich,1982 pt1 p98 pt2 p99.                     
 TiO(c)           tpis82  -0.542000E+06     Gamma,cubic. Gurvich,1982 pt1 p98 pt2 p99.                    
 TiO(L)           tpis82  -0.542000E+06     Liquid. Gurvich,1982 pt1 p98 pt2 p99.                         
 TiO2(cr)         tpis82  -0.944000E+06     Rutile,tetragonal. Gurvich,1982 pt1 p105 pt2 p105.            
 TiO2(L)          tpis82  -0.944000E+06     Liquid. Gurvich,1982 pt1 p105 pt2 p105.                       
 Ti2O3(I)         tpis82  -0.152000E+07     Hexagonal. Gurvich,1982 pt1 p109 pt2 p108.                    
 Ti2O3(I')        tpis82  -0.152000E+07     Hexagonal. Gurvich,1982 pt1 p109 pt2 p108.                    
 Ti2O3(L)         tpis82  -0.152000E+07     Liquid. Gurvich,1982 pt1 p109 pt2 p108.                       
 Ti3O5(a)         tpis82  -0.245700E+07     Alpha,monoclinic. Gurvich,1982 pt1 p111 pt2 p110.             
 Ti3O5(b)         tpis82  -0.245700E+07     Beta,rhombic. Gurvich,1982 pt1 p111 pt2 p110.                 
 Ti3O5(L)         tpis82  -0.245700E+07     Liquid. Gurvich,1982 pt1 p111 pt2 p110.                       
 Ti4O7(cr)        tpis82  -0.340300E+07     Triclinic. Gurvich,1982 pt1 p112 pt2 p111.                    
 Ti4O7(L)         tpis82  -0.340300E+07     Liquid. Gurvich,1982 pt1 p112 pt2 p111.                       
 U(a)             coda89   0.000000E+00     Alpha. Ref-Elm. Cox,1989 p234.                                
 U(b)             coda89   0.000000E+00     Beta. Ref-Elm. Cox,1989 p234.                                 
 U(c)             coda89   0.000000E+00     Gamma. Ref-Elm. Cox,1989 p234.                                
 U(L)             coda89   0.000000E+00     Liquid. Ref-Elm. Cox,1989 p234.                               
 UF3(cr)          tpis82  -0.150870E+07     Hexagonal. Gurvich,1982 pt1 p209 pt2 p236.                    
 UF3(L)           tpis82  -0.150870E+07     Liquid. Gurvich,1982 pt1 p209 pt2 p236.                       
 UF4(cr)          tpis82  -0.192050E+07     Monoclinic. Gurvich,1982 pt1 p212 pt2 p243.                   
 UF4(L)           tpis82  -0.192050E+07     Liquid. Gurvich,1982 pt1 p212 pt2 p243.                       
 UF5(b)           tpis82  -0.208300E+07     Beta,tetragonal. Gurvich,1982 pt1 p217 pt2 p250.              
 UF5(a)           tpis82  -0.208300E+07     Alpha,tetragonal. Gurvich,1982 pt1 p217 pt2 p250.             
 UF5(L)           tpis82  -0.208300E+07     Liquid. Gurvich,1982 pt1 p217 pt2 p250.                       
 UF6(cr)          tpis82  -0.219770E+07     Rhombic. Gurvich,1982 pt1 p222 pt2 p532.                      
 UF6(L)           tpis82  -0.219770E+07     Liquid. Gurvich,1982 pt1 p222 pt2 p532.                       
 UO2(cr)          tpis82  -0.108500E+07     Cubic. Gurvich,1982 pt1 p190 pt2 p209.                        
 UO2(L)           tpis82  -0.108500E+07     Liquid. Gurvich,1982 pt1 p190 pt2 p209.                       
 UO2F2(cr)        tpis82  -0.165360E+07     Hexagonal. Gurvich,1982 pt1 p227 pt2 p262.                    
 UO3(c)           tpis82  -0.122380E+07     Gamma,monoclinic. Gurvich,1982 pt1 p195 pt2 p217.             
 U3O8(II)         tpis82  -0.357480E+07     Rhombic. Gurvich,1982 pt1 p199 pt2 p222.                      
 U3O8(I)          tpis82  -0.357480E+07     Hexagonal. Gurvich,1982 pt1 p199 pt2 p222.                    
 U4O9(III)        tpis82  -0.451200E+07     Cubic. Gurvich,1982 pt1 p201 pt2 p223.                        
 U4O9(II)         tpis82  -0.451200E+07     Cubic. Gurvich,1982 pt1 p201 pt2 p223.                        
 U4O9(I)          tpis82  -0.451200E+07     Gurvich,1982 pt1 p201 pt2 p223.                               
 V(cr)            j 6/73   0.000000E+00     Crystal. Ref-Elm. Chase,1998 p1917.                           
 V(L)             j 6/73   0.000000E+00     Liquid. Ref-Elm. Chase,1998 p1917.                            
 VCL2(cr)         g10/00  -0.451872E+06     Pankratz,1984.                                                
 VCL3(cr)         g 8/00  -0.581116E+06     Pankratz,1984.                                                
 VN(cr)           j12/73  -0.217150E+06     Chase,1998 p1635.                                             
 VO(cr)           tpis82  -0.430800E+06     Cubic Gurvich,1982 pt1 p60 pt2 p63.                           
 VO(L)            tpis82  -0.430800E+06     Liquid Gurvich,1982 pt1 p60 pt2 p63.                          
 V2O3(cr)         tpis82  -0.121680E+07     Hexagonal. Gurvich,1982 pt1 p65 pt2 p67.                      
 V2O3(L)          tpis82  -0.121680E+07     Liquid. Gurvich,1982 pt1 p65 pt2 p67.                         
 V2O4(II)         tpis82  -0.143260E+07     Monoclinic. Gurvich,1982 pt1 p67 pt2 p68.                     
 V2O4(I)          tpis82  -0.143260E+07     Tetragonal. Gurvich,1982 pt1 p67 pt2 p68.                     
 V2O4(L)          tpis82  -0.143260E+07     Liquid. Gurvich,1982 pt1 p67 pt2 p68.                         
 V2O5(cr)         tpis82  -0.155100E+07     Rhombic. Gurvich,1982 pt1 p68 pt2 p69.                        
 V2O5(L)          tpis82  -0.155100E+07     Liquid. Gurvich,1982 pt1 p68 pt2 p69.                         
 W(cr)            j 6/66   0.000000E+00     Crystal. Ref-Elm. Chase,1998 pp1925-8.                        
 W(L)             j 6/66   0.000000E+00     Liquid. Ref-Elm. Chase,1998 pp1925-8.                         
 WC(cr)           bar 89  -0.405400E+05     Hf:Wagman,1982 p203. Barin,1989 pt2 p1642.                    
 WCL6(I)          j12/66  -0.593710E+06     Alpha1. Chase,1998 pp931-4.                                   
 WCL6(II)         j12/66  -0.593710E+06     Alpha2. Chase,1998 pp931-4.                                   
 WCL6(III)        j12/66  -0.593710E+06     Beta. Chase,1998 pp931-4.                                     
 WCL6(L)          j12/66  -0.593710E+06     Liquid. Chase,1998 pp931-4.                                   
 WOCL4(cr)        j 3/67  -0.671114E+06     Crystal. Chase,1998 pp897-9.                                  
 WOCL4(L)         j 3/67  -0.671114E+06     Liquid. Chase,1998 pp897-9.                                   
 WO2(cr)          tpis82  -0.588100E+06     Gurvich,1982 pt1 p46 pt2 p49.                                 
 WO2CL2(cr)       j 3/67  -0.780316E+06     Chase,1998 p848.                                              
 WO3(III)         tpis82  -0.841300E+06     Gurvich,1982 pt1 p49 pt2 p51.                                 
 WO3(III,II)      tpis82  -0.841300E+06     Gurvich,1982 pt1 p49 pt2 p51.                                 
 WO3(I)           tpis82  -0.841300E+06     Gurvich,1982 pt1 p49 pt2 p51.                                 
 WO3(L)           tpis82  -0.841300E+06     Liquid. Gurvich,1982 pt1 p49 pt2 p51.                         
 Zn(cr)           coda89   0.000000E+00     Crystal. Ref-Elm. Cox,1989 p221.                              
 Zn(L)            coda89   0.000000E+00     Liquid. Ref-Elm. Cox,1989 p221.                               
 ZnSO4(a)         j 3/79  -0.980144E+06     Alpha. Chase,1998 p1788.                                      
 ZnSO4(a')        j 3/79  -0.980144E+06     Alpha'.Chase,1998 p1788.                                      
 ZnSO4(b)         j 3/79  -0.980144E+06     Beta. Chase,1998 p1788.                                       
 Zr(a)            j 6/79   0.000000E+00     Alpha. Ref-Elm. Chase,1998 pp1943-7.                          
 Zr(b)            j 6/79   0.000000E+00     Beta. Ref-Elm. Chase,1998 pp1943-7.                           
 Zr(L)            j 6/79   0.000000E+00     Liquid. Ref-Elm. Chase,1998 pp1943-7.                         
 ZrC(cr)          j12/64  -0.196648E+06     Crystal. Chase,1998 pp658-60.                                 
 ZrC(L)           j12/64  -0.196648E+06     Liquid. Chase,1998 pp658-60.                                  
 ZrN(cr)          g11/00  -0.371238E+06     Chase,1998 pp1617-9 6/61.                                     
 ZrN(L)           g11/00  -0.371238E+06     Chase,1998 pp1617-9 6/61.                                     
 ZrO2(III)        tpis82  -0.110030E+07     Monoclinic. Gurvich,1982 pt1 p123 pt2 p122.                   
 ZrO2(II)         tpis82  -0.110030E+07     Tetragonal. Gurvich,1982 pt1 p123 pt2 p122.                   
 ZrO2(I)          tpis82  -0.110030E+07     Cubic. Gurvich,1982 pt1 p123 pt2 p122.                        
 ZrO2(L)          tpis82  -0.110030E+07     Liquid. Gurvich,1982 pt1 p123 pt2 p122.                       
 Air              g 9/95  -0.125530E+03     Mole%:N2 78.084,O2 20.9476,Ar .9365,CO2 .0319.Gordon,1982.Reac
 B2H6(L)          g 6/96   0.164450E+05     Diborane. McBride,1996 pp84,92.                               
 B5H9(L)          j 3/65   0.428400E+05     Pentaborane. Chase,1998 p302.                                 
 (CH2)x(cr)       g 6/96  -0.256000E+05     Ethylene polymer. McBride,1996 pp84,92.                       
 CH3NO2(L)        g 6/96  -0.113100E+06     Nitromethane. McBride,1996 pp85,93.                           
 CH4(L)           g 6/96  -0.892330E+05     Methane. McBride,1996 pp85,93.                                
 CH3OH(L)         n12/84  -0.238910E+06     MeOH. TRC(12/87) p5000 (12/84)tc,uc,vc5031,5033.        React.
 CH6N2(L)         n12/93   0.542000E+05     Monomethyl Hydrazine. TRC(12/93) p9220.                       
 C2H2(L),acetyle  g 6/96   0.207599E+06     Acetylene. McBride,1996 pp84,92.                              
 CH3CN(L)         g 6/96   0.313800E+05     Ethanenitrile (Acetonitrile). McBride,1996 pp84,92.           
 C2H4(L)          g 6/96   0.339450E+05     Ethylene. McBride,1996 pp84,92.                               
 C2H4O(L),ethyle  g 6/96  -0.788410E+05     Ethylene oxide (Oxirane). McBride,1996 pp84,92.               
 C2H6(L)          g 6/96  -0.103819E+06     Ethane. McBride,1996 pp84,92.                                 
 C2H5OH(L)        n12/84  -0.277510E+06     Ethanol. TRC(12/87) p5000 (12/84) tc,uc,vc5031-3.       React.
 C2H8N2(L),UDMH   g 6/96   0.489000E+05     Unsymmetrical Dimethyl Hydrazine. McBride,1996 pp85,93.       
 C2N2(L)          g 6/96   0.283209E+06     Cyanogen. McBride,1996 pp84,92.                               
 C3H6(L),propyle  g 6/96  -0.270400E+04     Propylene. McBride,1996 pp85,93.                              
 C3H7NO3(L)       g 6/96  -0.214500E+06     Propyl Nitrate. McBride,1996 pp85,93.                         
 C3H8(L)          g 6/96  -0.128228E+06     Propane. McBride,1996 pp85,93.                                
 C4H8(L),1-buten  g 6/96  -0.251730E+05     1-Butene. McBride,1996 pp84,92.                               
 C4H10(L),n-buta  g 6/96  -0.150664E+06     n-Butane. McBride,1996 pp84,92.                               
 C4H10(L),isobut  g 6/96  -0.159664E+06     Isobutane(2-methyl propane). McBride,1996 pp84,92.            
 C5H12(L),n-pent  g 6/96  -0.173490E+06     n-Pentane. McBride,1996 pp85,93.                              
 C6H6(L)          n10/86   0.490800E+05     TRC(10/86) tc,uc,vc3201 (4/83) p3200.                   React.
 C6H5NH2(L)       n12/88   0.315000E+05     Aniline. TRC(12/88) tc,uc,vc9370. TRC(6/95) p9370.      React.
 C6H14(L),n-hexa  n 4/85  -0.198660E+06     n-hexane. TRC(4/85) p,tc,uc,vc1440,1441.                React.
 C7H8(L)          n10/86   0.121800E+05     TRC(10/86) tc uc vc3200-1 (4/83) p-3200.                React.
 C7H16(L),n-hept  n10/75  -0.224350E+06     TRC(10/84) p-1010 (10/75) tc,uc,vc1460.                 React.
 C8H18(L),n-octa  n10/84  -0.250260E+06     TRC(10/76) tc,uc,vc1491,1492. Hf:(10/84) p1010.         React.
 C8H18(L),isooct  n10/82  -0.259160E+06     TRC(10/76) tc,uc,vc1491,1492. Hf:(10/82) p1490.         React.
 CLF3(L)          g 6/96  -0.193386E+06     Chlorine Trifluoride. McBride,1996 pp84,92.                   
 CLO3F            g 5/95  -0.238000E+05     Hf:Wagman,1982 p49. Chase,1998 p755.                    React.
 CLO3F(L)         g 6/96  -0.474360E+05     Perchloryl Fluoride. McBride,1996 pp85,93.                    
 CL2(L)           g 6/96  -0.225500E+05     Chlorine. McBride,1996 pp84,92.                               
 F2(L)            g 6/96  -0.130910E+05     Fluorine. McBride,1996 pp84,92.                               
 F2O(L)           g 6/96   0.667200E+04     Oxygen Difluoride. McBride,1996 pp85,93.                      
 HNO3(L)          g 6/96  -0.173013E+06     Nitric Acid. McBride,1996 pp85,93.                            
 H2(L)            g 6/96  -0.901200E+04     Hydrogen. McBride,1996 pp84,92.                               
 H2O2(L)          tpis89  -0.187780E+06     Gurvich, 1989 v1 pt1 p126 pt2 p303.                     React.
 IRFNA            g 6/96  -0.270496E+06     Inhibited Red Fuming Nitric Acid. McBride,1996 pp84,93.       
 JP-4             g 6/96  -0.227230E+05     McBride,1996 pp85,93. Hcomb = 18640.BTU/#                     
 JP-5             g 6/96  -0.221830E+05     Or ASTMA1(L). McBride,1996 pp85,93. Hcomb = 18600.BTU/#       
 JP-10(L)         g 6/01  -0.122800E+06     Exo-tetrahydrodicyclopentadiene. Smith,1979.            React.
 JP-10(g)         g 6/01  -0.868559E+05     Exo-tetrahydrodicyclopentadiene. Zehe,2002.             React.
 Jet-A(L)         g 2/96  -0.303403E+06     McBride,1996. Faith,1971. Gracia-Salcedo,1988.          React.
 Jet-A(g)         g 8/01  -0.249657E+06     McBride,1996. Faith,1971. Gracia-Salcedo,1988.          React.
 LiCLO4(cr)       g 6/96  -0.380700E+06     Lithium Perchlorate. Chase,1998 p782.                         
 NF3(L)           g 6/96  -0.150387E+06     Nitrogen trifluoride. McBride,1996 pp85,93.                   
 NH3(L)           g 6/96  -0.715550E+05     Ammonia. McBride,1996 pp84,92.                                
 NH4CLO4(I)       j12/62  -0.295767E+06     Ammonium Perchlorate. Chase,1998 p766.                  React.
 NH4CLO4(II)      j12/62  -0.295767E+06     Ammonium Perchlorate. Chase,1998 p766.                  React.
 NH4NO3(IV)       tpis89  -0.365600E+06     Rhombic(IV). Gurvich,1989 pt1 p370 pt2 p322.            React.
 NH4NO3(III)      tpis89  -0.365600E+06     Rhombic(III). Gurvich,1989 pt1 p370 pt2 p322.           React.
 NH4NO3(II)       tpis89  -0.365600E+06     Tetragonal(II). Gurvich,1989 pt1 p370 pt2 p322.         React.
 NH4NO3(I)        tpis89  -0.365600E+06     Cubic(I). Gurvich,1989 pt1 p370 pt2 p322.               React.
 NH4NO3(L)        tpis89  -0.365600E+06     Liquid  Gurvich,1989 pt1 p370 pt2 p322.                 React.
 N2(L)            g 6/96  -0.121070E+05     Nitrogen. McBride,1996 pp85,93.                               
 N2H4(L)          g11/99   0.503800E+05     Hydrazine.Hf:Gurvich,1989 pt1 p360. Chase,1998(12/65).  React.
 N2O4(L)          g 6/96  -0.175490E+05     Dinitrogen tetroxide. McBride,1996 pp85,93.                   
 O2(L)            g 6/96  -0.129790E+05     Oxygen. McBride,1996 pp85,93.                                 
 O3(L)            g 6/96   0.122527E+06     Ozone. McBride,1996 pp85,93.                                  
 RP-1             gll/00  -0.247177E+05     Mehta et.al. AIAA 95-2962 1995. Hcomb(high) = 19923.BTU/#     
